20

C          1.83686       -0.80609        1.70885
O          2.77729       -0.42641        0.70766
C          3.49487        0.68774        1.04913
C          4.39887        1.21592        0.21764
C          5.19426        2.45410        0.51589
C          6.68415        2.24403        0.37055
C          7.35933        1.30219        1.32810
C          7.40725        2.90293       -0.55180
H          1.29445       -1.68564        1.34987
H          1.11089       -0.00544        1.88854
H          2.34885       -1.07359        2.63913
H          3.27213        1.11000        2.02125
H          4.56049        0.74412       -0.74882
H          4.98678        2.82241        1.52809
H          4.85406        3.23857       -0.17167
H          6.64396        0.83112        2.00916
H          8.08984        1.84026        1.94171
H          7.87501        0.50370        0.78395
H          6.94899        3.60317       -1.24364
H          8.48113        2.76192       -0.63379
