14

N          0.91452       -0.03097        0.04164
C          2.17549       -0.03097        0.04164
C          3.69549       -0.03097        0.04164
C          4.20215        1.30139       -0.48611
C          4.63676        2.44428       -0.93881
C          5.21688        3.63731       -1.47801
C          4.33861        4.80695       -1.82899
N          5.21767        4.85093       -0.66583
H          4.06374       -0.84317       -0.59302
H          4.06372       -0.18823        1.06035
H          6.10706        3.49797       -2.08542
H          3.27555        4.75647       -1.63403
H          4.63270        5.42438       -2.66859
H          4.68890        4.70446        0.19533
