20

C          0.79225        0.10263       -0.24762
C          2.29900       -0.05982       -0.20297
O          2.88209        1.10771       -0.77312
C          4.30678        1.07969       -0.72988
O          4.85762       -0.02409       -1.44800
C          4.58063       -0.00462       -2.84306
C          4.88133        2.38063       -1.23446
C          4.19176        3.42078       -1.72545
H          0.29026       -0.81185        0.08005
H          0.45959        0.34786       -1.26190
H          0.47790        0.92782        0.39942
H          2.58410       -0.94286       -0.78402
H          2.63325       -0.18786        0.83236
H          4.61936        0.97312        0.31632
H          4.63720       -1.03223       -3.21321
H          5.34145        0.58527       -3.36210
H          3.58352        0.38501       -3.06869
H          5.96569        2.44725       -1.19649
H          3.10728        3.39842       -1.79193
H          4.69634        4.31262       -2.08340
