18

N          1.07038       -0.04231        0.07785
C          2.53204       -0.05817        0.05261
C          3.11676        1.07353        0.88901
C          4.50316        0.55829        1.23559
N          4.33967       -0.87922        1.49185
C          3.16596       -1.31378        0.70085
C          2.95655        0.06585       -1.40163
C          3.32070        0.17223       -2.64907
H          0.74217       -0.19320        1.02952
H          0.72296       -0.82603       -0.47300
H          2.54430        1.21624        1.81568
H          3.15595        2.03434        0.36437
H          4.92060        1.07021        2.10811
H          5.19679        0.70234        0.39958
H          4.13331       -1.01632        2.48181
H          2.46040       -1.79786        1.38773
H          3.46449       -2.06574       -0.03812
H          3.61626        0.26271       -3.66858
