19

C         -1.44148        0.41692        0.90285
C         -1.10090        1.42500       -0.19915
C          0.16024        0.84270       -0.84138
C          1.30448        0.80701        0.17815
C          1.01152       -0.58949        0.70061
N          1.07192       -1.45816       -0.54269
C         -0.15801       -0.65904       -0.89663
C         -0.55049       -0.78206        0.59565
H         -2.50153        0.14584        0.85170
H         -1.23941        0.81727        1.90101
H         -0.95043        2.43294        0.19992
H         -1.91543        1.46512       -0.93101
H          0.42760        1.30255       -1.79432
H          1.23776        1.58614        0.94266
H          2.28725        0.86103       -0.30359
H          1.53980       -0.96367        1.57793
H          0.88503       -2.44584       -0.36525
H         -0.83456       -1.06488       -1.64996
H         -0.92832       -1.75058        0.94235
