19

N          1.11176        0.01357        0.12235
C          2.56351        0.03674       -0.00654
C          3.15068        1.10730        0.93985
C          4.22776        0.06554        1.31273
C          3.19260       -1.03531        0.92744
C          3.73661       -2.28448        0.24379
C          4.72360       -2.97620        1.16996
C          5.57023       -3.56955        1.96443
H          0.65229        0.79389       -0.34644
H          0.76620        0.02891        1.08181
H          2.94769        0.06192       -1.03124
H          2.52521        1.39625        1.79393
H          3.52711        2.01390        0.45746
H          4.54697        0.07056        2.35817
H          5.11485        0.10381        0.66898
H          2.56391       -1.30455        1.79000
H          4.25570       -2.03110       -0.68760
H          2.92112       -2.97271       -0.00225
H          6.26160       -4.05539        2.61360
