14

C          1.12210        0.08396       -0.18244
C          2.44577        0.11548       -0.00677
C          3.25919       -1.05597        0.25298
C          4.53764       -0.71515        0.48105
C          4.66167        0.76090        0.36267
O          5.68101        1.39986        0.53336
C          3.30674        1.27862        0.00289
C          3.05685        2.56132       -0.27414
H          0.56804       -0.84877       -0.14983
H          0.54416        0.98746       -0.34531
H          2.87704       -2.06597        0.26348
H          5.37297       -1.35502        0.70263
H          3.85348        3.29864       -0.23114
H          2.07173        2.90598       -0.56465
