20

C          1.04855        0.13146        0.18286
O          2.45694        0.30082        0.10455
C          2.90042        0.93731       -1.10479
C          2.47425        2.40329       -1.12299
C          4.43465        0.83679       -1.16456
O          4.81310       -0.52997       -1.38872
C          6.16854       -0.71111       -1.37369
C          6.70773       -1.92937       -1.42689
H          0.83387       -0.57503        0.98928
H          0.64098       -0.26999       -0.74972
H          0.56679        1.08163        0.42963
H          2.47667        0.40169       -1.96350
H          2.76582        2.90545       -0.19390
H          1.38631        2.49401       -1.20482
H          2.91544        2.93852       -1.96941
H          4.86902        1.18535       -0.21852
H          4.81769        1.44474       -1.99373
H          6.76888        0.18686       -1.31947
H          6.07974       -2.81195       -1.47924
H          7.78361       -2.06560       -1.41475
