18

C          0.94459       -0.36745        0.00557
C          2.23276       -0.13878        0.29600
C          3.41917       -1.02497       -0.00200
C          3.16276       -2.39155       -0.67559
O          2.81290       -2.26452       -2.06336
C          3.83163       -1.53383       -2.75769
C          4.01637       -0.15348       -2.13454
O          4.38239       -0.25997       -0.75105
H          0.18279        0.35937        0.27100
H          0.61462       -1.26267       -0.51241
H          2.48410        0.79127        0.80381
H          3.88718       -1.23215        0.96873
H          2.36379       -2.94306       -0.17000
H          4.06901       -3.00704       -0.61895
H          3.52885       -1.44248       -3.80489
H          4.76388       -2.10921       -2.71850
H          3.09913        0.43956       -2.21918
H          4.81460        0.38954       -2.64954
