18

C          0.86718        0.05679        0.06296
C          2.39537        0.04780        0.18349
C          2.98219       -1.25550       -0.38736
C          3.73197       -1.14863       -1.67391
C          4.04590       -0.00874       -2.29023
C          3.66732        1.29312       -1.71560
O          3.96898        2.31712       -2.32809
C          2.99815        1.35123       -0.36414
H          0.43813       -0.83385        0.53670
H          0.54143        0.08121       -0.98216
H          0.44594        0.92682        0.57700
H          2.59194        0.03825        1.26155
H          2.18461       -1.99954       -0.52703
H          3.66348       -1.68923        0.35514
H          4.05489       -2.08605       -2.12339
H          4.60873        0.01421       -3.21686
H          2.22121        2.12376       -0.42801
H          3.75736        1.71387        0.34131
