16

C          0.99237        0.17760       -0.17372
C          2.49492        0.06959       -0.06729
C          3.13933       -0.76972        0.75980
C          2.41512       -1.70729        1.68349
C          3.40286       -2.53166        2.49292
C          4.25015       -3.23880        3.18725
C          3.25492        1.00726       -0.99119
C          3.90685        1.81159       -1.78370
H          0.45679       -0.50068        0.49533
H          0.67123       -0.05026       -1.19598
H          0.67131        1.19662        0.06830
H          4.22700       -0.77823        0.76837
H          1.78603       -2.39958        1.11284
H          1.78821       -1.14677        2.38596
H          4.94398       -3.81593        3.75392
H          4.44144        2.46770       -2.43018
