20

C          2.51479       -1.18989        0.86955
C          2.37128       -0.01174       -0.08354
O          1.00071        0.16246       -0.43294
C          2.93486        1.26325        0.53469
C          2.83540        2.55810       -0.31448
C          2.63765        3.33161        1.00359
C          2.11516        2.01537        1.62711
O          2.48468        1.75390        2.99329
H          2.06356       -2.08941        0.43757
H          2.00056       -0.99937        1.81768
H          3.56745       -1.39489        1.08865
H          2.91300       -0.23692       -1.00848
H          0.46395        0.04437        0.37046
H          3.97461        1.08901        0.85447
H          1.96745        2.60586       -0.98177
H          3.73193        2.81853       -0.88372
H          1.91614        4.15176        0.95712
H          3.56885        3.70230        1.44654
H          1.02891        1.91579        1.51444
H          3.43017        1.97124        3.05685
