21

N          2.23025       -1.26253       -0.98558
C          2.51250       -0.09757       -0.14788
C          2.95925        1.11871       -0.97412
C          1.87648        1.65368       -1.93566
C          1.11604        2.71025       -1.12949
C          2.17327        3.31871       -0.25412
C          2.50130        2.75560        1.09777
C          3.29329        2.32421       -0.11356
H          1.96484       -2.04552       -0.38960
H          3.07725       -1.54673       -1.47320
H          3.29563       -0.35808        0.57327
H          1.60962        0.13094        0.42707
H          3.84536        0.83960       -1.55845
H          1.21716        0.88426       -2.34638
H          2.37204        2.14902       -2.78139
H          0.32938        2.24599       -0.52451
H          0.65272        3.45242       -1.78687
H          2.41587        4.34531       -0.48898
H          1.79478        2.07660        1.55869
H          2.99062        3.41133        1.80984
H          4.30930        2.67694       -0.23294
