18

C          0.95123        0.14672        0.07506
C          2.46427        0.06774       -0.02090
C          2.94416       -0.63751       -1.27919
O          2.17254       -1.06682       -2.14148
C          4.46948       -0.76614       -1.44485
O          4.81035       -1.89527       -2.23498
C          4.99189        0.44757       -2.15113
C          5.91842        1.28022       -1.65525
H          0.65339        0.65394        0.99849
H          0.50367       -0.85286        0.07564
H          0.53096        0.70185       -0.76963
H          2.85434       -0.48031        0.84351
H          2.88251        1.07925       -0.01022
H          4.92260       -0.90549       -0.45794
H          4.19144       -1.89266       -2.98910
H          4.58861        0.64499       -3.14380
H          6.37250        1.11936       -0.68262
H          6.26180        2.13179       -2.23423
