16

C          1.07714        0.12613        0.04158
C          2.58002        0.03784       -0.04815
O          3.11712       -0.73503       -0.84107
C          3.35595        0.96784        0.88242
C          4.84273        0.83314        0.72916
C          5.67362        0.49269        1.72479
C          7.07496        0.38541        1.51763
C          8.26069        0.29444        1.35220
H          0.62307       -0.58398       -0.65530
H          0.75366        1.13588       -0.22313
H          0.75396       -0.12027        1.05590
H          3.04498        0.75035        1.91037
H          3.06876        1.99782        0.64480
H          5.24345        1.02264       -0.26605
H          5.29850        0.28892        2.72325
H          9.31198        0.21100        1.20516
