16

O          1.08973       -0.12038        0.02171
C          2.50543        0.09079        0.05693
C          3.41394       -0.62593       -1.01726
C          4.50126       -0.27316        0.06850
C          3.37969       -0.74766        1.06966
C          4.56148        1.27739        0.15987
C          3.06785        1.59718        0.15396
O          2.57700        2.70728        0.21106
H          0.96666       -1.08306       -0.02308
H          3.52112       -0.11638       -1.97927
H          3.22010       -1.68986       -1.19294
H          5.44363       -0.82002        0.05217
H          3.45391       -0.35372        2.08741
H          3.18215       -1.82445        1.11379
H          5.05173        1.71089       -0.71459
H          5.02202        1.60549        1.09427
