21

C          0.93888       -0.07446        0.01350
C          0.37261        0.81571        1.12837
N         -1.09260        0.72481        1.16478
C         -1.67248        1.57018        2.20799
C         -1.78018        1.94639        0.75614
C          2.44414       -0.04897        0.01165
C          3.20552       -0.81011       -1.04258
C          3.19930        0.69320       -1.06040
H          0.54603        0.24815       -0.95976
H          0.60867       -1.10938        0.16630
H          0.73982        1.84231        0.99728
H          0.76834        0.46424        2.08987
H         -1.00560        2.14067        2.84348
H         -2.54988        1.16953        2.70043
H         -1.19768        2.78299        0.39058
H         -2.74037        1.81137        0.27244
H          2.86172       -0.07631        1.01256
H          2.64799       -1.33243       -1.81054
H          4.11953       -1.31092       -0.74080
H          2.64611        1.18074       -1.85497
H          4.11029        1.20763       -0.77670
