18

C          1.01818        0.09775       -0.05595
C          2.54538        0.01857       -0.05481
C          2.98411       -1.38092        0.39218
C          3.09465        0.39352       -1.44350
C          4.61384        0.34574       -1.45674
C          5.91700        0.30476       -1.46810
C          7.35716        0.27365       -1.49454
O          7.98906        0.99667       -2.25235
H          0.61743       -0.12323        0.93934
H          0.58471       -0.62013       -0.76096
H          0.67916        1.09987       -0.33818
H          2.92454        0.74022        0.68096
H          2.67255       -2.14491       -0.32765
H          2.54621       -1.63176        1.36442
H          4.07143       -1.44361        0.50515
H          2.77326        1.40495       -1.71770
H          2.71438       -0.29483       -2.20756
H          7.83214       -0.43323       -0.79756
