20

C          0.84080       -0.03035        0.08219
C          2.36271        0.02803        0.10734
O          2.75965        0.95117        1.11852
C          2.97045       -1.34594        0.40100
C          4.48533       -1.31637        0.23595
C          5.33281       -0.55060        1.26625
O          6.22529       -1.68761        1.40995
C          5.23661       -2.54134        0.77932
H          0.42280        0.97076       -0.06859
H          0.44627       -0.39390        1.03786
H          0.48034       -0.68558       -0.71607
H          2.72966        0.41281       -0.85039
H          2.34632        0.67952        1.95652
H          2.55491       -2.08698       -0.29313
H          2.70853       -1.66226        1.41772
H          4.77797       -1.08378       -0.79695
H          4.85289       -0.31614        2.22162
H          5.85069        0.33164        0.88041
H          4.71231       -3.14380        1.52762
H          5.68025       -3.19440        0.02242
