15

N          1.08513       -0.04704        0.24757
C          2.51398       -0.01625       -0.07872
C          2.90358        1.23008       -0.84207
C          2.76245        2.47755       -0.26053
C          3.11645        3.55663       -1.03669
N          3.58397        3.44690       -2.29295
C          3.68213        2.19542       -2.76481
N          3.36222        1.07092       -2.10464
H          0.86278       -0.96033        0.63989
H          0.56392        0.01168       -0.62867
H          2.76254       -0.90197       -0.67495
H          3.10270       -0.07108        0.84373
H          2.37819        2.59974        0.74382
H          3.02609        4.57115       -0.66020
H          4.05524        2.08062       -3.77631
