18

C         -1.61167        0.78215       -0.92541
O         -1.61496       -0.24018        0.09785
C         -0.41788       -0.04265        0.88207
C         -0.20484        1.45954        0.83680
C         -0.37506        1.64354       -0.65570
O          0.73823        1.11815       -1.39789
C          1.52925        0.14680       -0.71165
C          0.71648       -0.79121        0.17673
H         -2.53587        1.35629       -0.80840
H         -1.59786        0.29801       -1.90595
H         -0.59015       -0.43066        1.88953
H          0.76589        1.77440        1.22898
H         -0.99982        1.98354        1.37986
H         -0.52489        2.67978       -0.96720
H          2.27155        0.68669       -0.11061
H          2.09351       -0.42322       -1.45627
H          1.39026       -1.25056        0.90957
H          0.30395       -1.60195       -0.43764
