16

O          2.34500       -1.11336        0.39388
C          2.12358        0.02365       -0.00080
C          2.90925        0.60297       -1.11408
C          2.21224        1.12394       -2.34125
C          2.85537        2.09655       -1.38288
C          4.10756        2.88794       -1.73748
C          4.18248        3.85088       -2.89657
O          3.97870        4.30902       -1.55839
H          1.33826        0.65518        0.44661
H          3.86318        0.10841       -1.27299
H          1.12872        1.09130       -2.37960
H          2.68761        0.95181       -3.30073
H          2.15324        2.66504       -0.77105
H          5.04941        2.45220       -1.41323
H          3.34484        3.90713       -3.57980
H          5.14924        4.03565       -3.34743
