16

C          0.98647        0.05496       -0.02299
C          2.46424       -0.10043       -0.05588
C          3.19147       -1.21455       -0.15880
C          2.81769       -2.64232       -0.26859
C          4.60117       -0.79535       -0.15026
O          5.55894       -1.54276       -0.23060
O          4.66462        0.55940       -0.04076
C          3.34294        1.08700        0.03223
H          0.46554       -0.90390       -0.09277
H          0.65254        0.67675       -0.85975
H          0.67599        0.53582        0.90991
H          1.73371       -2.78525       -0.27573
H          3.22214       -3.20903        0.57624
H          3.21553       -3.07215       -1.19338
H          3.18734        1.77879       -0.80094
H          3.22318        1.61836        0.98118
