19

C          1.09760       -0.25566       -0.06433
N          2.55473       -0.14275       -0.11144
N          2.96118       -0.07171       -1.47139
C          4.31293        0.11714       -1.72611
N          5.17075        0.20161       -0.75105
C          4.82094        0.23685       -3.13339
C          6.09751        0.97987       -3.38212
C          4.12669       -0.33740       -4.13140
H          0.77367       -0.36511        0.97522
H          0.74432       -1.12910       -0.62323
H          0.62021        0.64364       -0.46782
H          2.94345       -1.00058        0.29779
H          2.35975        0.44241       -2.11675
H          4.59893        0.15795        0.10148
H          6.51279        1.42916       -2.47542
H          5.92646        1.79695       -4.09204
H          6.85662        0.30977       -3.79944
H          3.22480       -0.91355       -3.96003
H          4.48101       -0.27786       -5.15622
