17

N          1.01764        0.19610        0.10540
C          2.44489       -0.10120        0.09992
C          3.20200        0.75648       -0.95828
C          4.35434        0.70265        0.09555
C          3.20511        0.75210        1.15560
N          4.94076       -0.66523        0.12397
N          4.17663       -1.80813        0.05022
C          2.89924       -1.57955        0.06878
H          0.79389        1.19073        0.08530
H          0.52791       -0.17871        0.91776
H          2.80808        1.76471       -1.13995
H          3.40235        0.28498       -1.92553
H          5.07496        1.52180        0.10905
H          2.81152        1.75991        1.34129
H          3.40715        0.27771        2.12109
H          5.83560       -0.79080       -0.35273
H          2.15311       -2.38737        0.03702
