18

C          0.78108        1.41464       -0.30612
C         -0.74961        1.38005       -0.29875
C         -1.20091       -0.05005        0.01075
O         -0.71725       -0.94093       -0.99756
C          0.71367       -0.94535       -1.04774
C          1.29840        0.00324       -0.00031
C          0.71321       -0.42698        1.34553
O         -0.71769       -0.44412        1.29741
H          1.14658        2.12981        0.44014
H          1.14672        1.75684       -1.28140
H         -1.12764        1.69833       -1.27660
H         -1.12778        2.07417        0.45992
H         -2.29320       -0.11002        0.02353
H          1.01957       -0.65905       -2.05976
H          1.05146       -1.97378       -0.87984
H          2.39193       -0.02499        0.00601
H          1.01858        0.25258        2.14846
H          1.05116       -1.43259        1.61846
