15

N          1.41721       -0.10050       -0.27532
C          2.66294       -0.08113        0.09214
C          3.45758       -1.36313        0.29110
C          4.17710       -1.37359        1.59862
C          4.97591       -0.41267        2.08113
N          5.33478        0.78456        1.52748
C          4.52407        1.42505        0.75326
N          3.29999        1.11320        0.23593
H          1.07908       -1.06649       -0.35056
H          4.17058       -1.46994       -0.53420
H          2.77727       -2.22082        0.24506
H          4.04864       -2.27049        2.20064
H          5.44999       -0.59612        3.04547
H          4.84267        2.43022        0.42746
H          2.73806        1.88739       -0.09518
