16

C          0.95798       -0.07246        0.05462
C          2.47798       -0.07246        0.05462
C          3.78184       -0.07246        0.05462
C          5.30184       -0.07246        0.05462
C          5.97335       -0.23474        1.20695
C          5.38019       -0.42651        2.57211
C          7.45557       -0.22456        1.13897
O          8.16532       -0.36383        2.12855
H          0.58503       -0.10267        1.08217
H          0.58482       -0.94721       -0.48519
H          0.58480        0.83246       -0.43290
H          5.78029        0.06309       -0.90966
H          4.28664       -0.42647        2.57080
H          5.70078        0.37653        3.24481
H          5.70078       -1.38383        2.99678
H          7.89764       -0.08511        0.13906
