18

C          0.86292        0.37089        0.44714
C          2.35617        0.37395        0.47073
C          3.10185        1.07315       -0.40018
C          4.61241        1.09126       -0.38878
C          5.19769        0.04487       -1.34575
O          4.83716        0.29967       -2.69998
C          5.14989        2.46875       -0.76063
O          4.58625        3.53080       -0.50449
H          0.48298       -0.45041        1.06342
H          0.48424        0.22011       -0.57017
H          0.46603        1.30820        0.84652
H          2.83293       -0.22794        1.24131
H          2.60794        1.68908       -1.15235
H          4.98892        0.87899        0.62023
H          4.86265       -0.96494       -1.08229
H          6.29167        0.05220       -1.29342
H          3.87582        0.15198       -2.77637
H          6.15748        2.48115       -1.21228
