18

C          0.96831       -0.04767       -1.37190
C          2.33203        0.23051       -0.78184
O          2.79435        1.37594       -0.82052
C          3.06254       -0.95588       -0.11971
C          4.61523       -0.96832       -0.06654
C          4.50952       -2.50947       -0.11816
C          3.19893       -2.29778       -0.91023
O          3.34644       -2.18350       -2.34128
H          0.27730        0.74511       -1.07577
H          0.57679       -0.99156       -0.98359
H          1.04263       -0.10546       -2.45796
H          2.62909       -1.12709        0.87929
H          5.10598       -0.53090       -0.94274
H          5.06699       -0.55137        0.83830
H          4.35371       -2.97601        0.86546
H          5.31893       -3.03006       -0.62917
H          2.41966       -3.03150       -0.68193
H          3.88616       -2.94965       -2.60612
