14

C          0.84009        0.03601        0.02766
C          2.32195       -0.04142        0.03094
C          3.20920        1.01540        0.03637
O          4.49024        0.57109        0.03850
C          4.43805       -0.78395        0.03432
C          3.13077       -1.22296        0.02933
C          2.72934       -2.61309        0.02384
O          1.56073       -2.98665        0.01911
H          0.49699        1.07573        0.02790
H          0.42858       -0.45499        0.91523
H          0.43239       -0.45329       -0.86258
H          3.08984        2.09054        0.03926
H          5.39823       -1.28175        0.03552
H          3.55319       -3.34707        0.02398
