14

C          1.15202       -0.07944        0.06468
C          2.61734        0.18731        0.09386
C          3.18473        1.40664        0.13199
C          4.65094        1.19606        0.17775
O          5.49393        2.07464        0.20630
C          4.93907       -0.25646        0.10169
O          4.52090       -1.08792        1.19076
C          3.57322       -0.93545        0.12667
H          0.57197        0.84923        0.07125
H          0.85471       -0.66870        0.93798
H          0.88381       -0.63802       -0.83763
H          2.72449        2.37817        0.14090
H          5.69743       -0.60770       -0.58134
H          3.40320       -1.76579       -0.54746
