18

C          0.98620        0.05460        0.03606
C          2.46450        0.18515        0.12276
O          3.19244       -0.61699       -0.80994
C          3.25393        0.80829       -1.00416
C          4.45858        1.57551       -0.67309
C          4.48738        2.85094       -0.25382
C          5.73204        3.59867        0.08934
O          5.81506        4.73476       -0.75498
H          0.62719       -0.66743        0.77636
H          0.65995       -0.28301       -0.95288
H          0.51149        1.01854        0.24243
H          2.83178        0.25355        1.13793
H          2.70307        1.19670       -1.85578
H          5.39644        1.03419       -0.78419
H          3.55470        3.39835       -0.13431
H          6.63685        2.99648       -0.04045
H          5.69136        3.94054        1.12779
H          5.83547        4.40355       -1.66883
