17

N          1.16503       -0.08340       -0.45259
C          2.35197       -0.18307        0.03663
N          2.84676       -1.35695        0.51988
C          3.97093       -1.32133        1.44410
C          5.04585       -0.33084        0.98067
N          4.59853        0.97556        0.48575
C          3.63918        1.67452        1.32571
C          3.19732        1.03559        0.03189
H          0.71258       -0.99614       -0.33985
H          3.00113       -2.01985       -0.23511
H          4.39939       -2.32554        1.53579
H          3.59891       -1.04460        2.43727
H          5.60559       -0.80127        0.16327
H          5.76443       -0.18011        1.79420
H          3.71674        2.75632        1.33995
H          3.31681        1.23874        2.26232
H          3.03259        1.69604       -0.81397
