18

C          1.06550       -0.11578        1.16917
C          2.55878       -0.07383        1.21582
C          3.27702        0.92877        0.68611
C          4.77535        1.00275        0.71366
C          5.28958        2.28492        1.36091
O          4.56362        3.18785        1.78335
C          6.80685        2.42799        1.42019
O          7.20787        3.61086        2.09391
H          0.69984       -0.99173        1.71428
H          0.71189       -0.19272        0.13645
H          0.63244        0.77379        1.63686
H          3.05539       -0.90565        1.71071
H          2.76023        1.75585        0.19986
H          5.14840        0.97523       -0.31557
H          5.20089        0.15400        1.26040
H          7.19700        2.46372        0.39955
H          7.23056        1.57062        1.94956
H          6.41275        4.18097        2.14259
