17

N          1.07208        0.54556       -1.64973
N          2.48328        0.63192       -1.62146
C          3.17437       -0.50318       -1.23884
N          2.59015       -1.58725       -0.83612
C          4.68949       -0.47159       -1.30038
C          5.21484       -0.98882       -2.63434
C          4.83116       -0.12411       -3.76535
C          4.49248        0.55806       -4.69290
H          0.67588        1.38037       -2.08967
H          0.72187        0.57349       -0.68597
H          2.94709        1.19150       -2.34180
H          1.58568       -1.38717       -0.93534
H          5.07712       -1.10140       -0.49023
H          5.03294        0.55249       -1.11303
H          4.85552       -2.00834       -2.81497
H          6.30915       -1.03905       -2.58425
H          4.17786        1.14247       -5.52770
