20

C          1.06682       -0.27973       -0.05211
O          2.45809       -0.02738        0.07145
C          2.78794        1.10861        0.87814
C          2.33434        0.92641        2.33441
C          2.65929        2.12403        3.21740
O          2.17663        1.89658        4.53771
C          4.28460        1.23487        0.77660
C          4.94209        2.30322        0.30774
H          0.89998       -0.83404       -0.97976
H          0.48346        0.64528       -0.08801
H          0.73320       -0.90557        0.78071
H          2.30651        1.99503        0.44449
H          2.77131        0.01452        2.76228
H          1.25191        0.75147        2.37348
H          2.19261        3.03802        2.83551
H          3.73726        2.29263        3.28937
H          1.21256        1.78129        4.48845
H          4.85781        0.36744        1.09991
H          4.42407        3.18834       -0.04698
H          6.02751        2.30348        0.25751
