18

O          1.07964       -0.02165       -0.12821
C          2.50046        0.08794       -0.07760
C          2.94160        1.20263        0.84565
C          2.08969        1.99925        1.51800
C          4.39645        1.37857        0.98520
C          4.94803        1.20725        2.20299
C          5.30379        1.62294       -0.13299
C          4.98162        2.29849       -1.24336
H          0.88194       -0.74938       -0.74001
H          2.85351        0.26060       -1.09888
H          2.89528       -0.87024        0.27707
H          1.01507        1.87469        1.42742
H          2.43940        2.79506        2.16779
H          4.34202        0.98104        3.07527
H          6.01652        1.29908        2.37016
H          6.32272        1.24989       -0.03256
H          3.99461        2.72476       -1.39297
H          5.71820        2.45838       -2.02472
