16

C          0.96330       -0.09846        0.07033
C          2.49323       -0.07005       -0.00506
C          2.97128        1.23155       -0.66090
O          3.93227        1.12435       -1.72947
C          4.27776       -0.02673       -2.33633
O          4.99572       -0.05600       -3.32803
C          3.79350       -1.27547       -1.74439
C          2.99261       -1.30539       -0.67802
H          0.58227        0.78506        0.59357
H          0.61020       -0.98317        0.61222
H          0.51581       -0.11834       -0.93008
H          2.86612       -0.08530        1.02862
H          3.44335        1.85663        0.10661
H          2.13296        1.81886       -1.05079
H          4.14643       -2.18504       -2.21785
H          2.69431       -2.26751       -0.26736
