16

C          1.19498        0.18815        0.01138
C          2.47866       -0.17453       -0.15034
C          2.91125       -1.62715       -0.02862
C          3.76429       -2.05536       -1.19600
C          4.52094       -1.17402       -1.87071
C          4.62191        0.24596       -1.49724
O          3.67243        1.23487       -1.90728
C          3.54540        0.77130       -0.55430
H          0.42294       -0.53329        0.25883
H          0.88539        1.21883       -0.13570
H          2.03619       -2.28478        0.02593
H          3.47931       -1.76698        0.89938
H          3.73909       -3.10001       -1.49165
H          5.09839       -1.50383       -2.73026
H          5.63687        0.58445       -1.32183
H          3.86519        1.44589        0.23127
