22

C          0.80246        1.14221       -1.36717
C          2.31208        1.30845       -1.38777
C          3.02888       -0.03148       -1.22733
C          4.53239        0.15590       -1.36025
C          5.28664        0.90789       -0.25257
C          6.21733       -0.31261       -0.25872
C          7.52144       -0.18967       -1.02605
O          5.24180       -1.07388       -1.02447
H          0.31347        2.11662       -1.46138
H          0.47031        0.68352       -0.43025
H          0.46870        0.51246       -2.19775
H          2.61116        1.98907       -0.58034
H          2.61330        1.78580       -2.32720
H          2.68298       -0.72803       -2.00089
H          2.77794       -0.47628       -0.25711
H          4.81321        0.47658       -2.37198
H          4.73215        1.03948        0.68160
H          5.73372        1.85880       -0.55312
H          6.36366       -0.74732        0.73692
H          7.35727        0.15403       -2.05301
H          8.03120       -1.15728       -1.07264
H          8.19218        0.52209       -0.53539
