17

N          1.17016       -0.21469        0.01148
C          2.56270        0.10078        0.31620
C          3.01843        1.18941       -0.61692
C          2.32328        2.53998       -0.49608
N          3.71981        2.39124       -0.10816
N          4.51750        2.82887       -1.14775
C          4.51502        1.97838       -2.12464
C          3.65828        0.78439       -1.89959
H          0.87318       -1.00255        0.58180
H          1.07754       -0.50371       -0.95914
H          3.18019       -0.79560        0.19723
H          2.64173        0.41935        1.35988
H          1.63480        2.69501        0.32757
H          2.08019        3.10164       -1.38791
H          5.08539        2.10486       -3.05381
H          4.30690       -0.09154       -1.80428
H          2.94832        0.64480       -2.71727
