18

N          3.52957       -0.76086        0.49562
C          2.38584       -0.01513       -0.00714
C          2.79371        0.96570       -1.04527
C          2.61421        2.30040       -1.01242
C          3.16014        2.88861       -2.20960
C          3.67332        1.92079       -2.98251
C          3.50416        0.58419       -2.32009
N          2.72850       -0.29577       -3.17500
H          3.22111       -1.37550        1.24705
H          4.18514       -0.10722        0.92336
H          1.89426        0.49268        0.83074
H          1.65553       -0.71466       -0.42752
H          2.14022        2.86790       -0.22572
H          3.14528        3.94407       -2.43306
H          4.15039        2.06368       -3.94011
H          4.48681        0.14755       -2.11122
H          1.79397        0.09443       -3.27385
H          2.62241       -1.18555       -2.69223
