18

C          1.05640       -0.06087       -0.00926
C          2.58585       -0.11400        0.04671
C          3.02032       -1.05246        1.17662
C          3.15138       -0.54280       -1.31895
C          4.62226       -0.54818       -1.34350
C          5.82347       -0.57985       -1.34893
C          7.35624       -0.64209       -1.33339
C          8.55556       -0.69603       -1.31321
H          0.64491        0.28222        0.94628
H          0.63201       -1.04831       -0.22249
H          0.71508        0.63040       -0.78663
H          2.95216        0.89390        0.28222
H          2.69887       -2.08146        0.98359
H          2.58573       -0.73495        2.13061
H          4.10772       -1.05288        1.30069
H          2.78937        0.14542       -2.09310
H          2.77775       -1.53904       -1.58488
H          9.61900       -0.74754       -1.29182
