18

C         -1.18191        0.09634        1.36384
C         -1.12539       -1.00656        0.28620
N          0.30083       -1.36171       -0.01052
C          0.73785       -0.20000       -0.83057
C         -0.42036       -0.03214       -1.79689
C         -1.45276        0.14367       -0.70788
N         -0.88243        1.12576        0.31305
C          0.58897        1.06632        0.03265
H         -0.46998        0.02170        2.19365
H         -2.18033        0.22500        1.80222
H         -1.81615       -1.84540        0.38064
H          0.38170       -2.20222       -0.58257
H          1.72147       -0.32893       -1.28618
H         -0.60432       -0.91219       -2.42263
H         -0.32719        0.85257       -2.43558
H         -2.50356        0.29957       -0.96232
H          1.19327        1.04363        0.94671
H          0.87192        1.95685       -0.54066
