18

C          1.87381        0.04747        0.96170
N          2.20215       -0.00008       -0.45256
C          0.78455        0.11185       -0.09397
C          0.10837        1.42279       -0.31990
C         -1.31234        1.06205        0.04170
N         -1.42696       -0.32793       -0.41845
C         -1.27693       -1.34446        0.61590
C         -0.15902       -0.99235       -0.32723
H          2.15289        0.95347        1.48406
H          1.99838       -0.86836        1.52625
H          2.42522       -0.95205       -0.74603
H          0.18111        1.71249       -1.37603
H          0.49222        2.24268        0.29731
H         -2.03132        1.70861       -0.47119
H         -1.48827        1.15798        1.12073
H         -1.80921       -2.27241        0.44571
H         -1.20023       -1.03915        1.65166
H          0.05648       -1.69233       -1.12851
