16

O          1.28875       -0.12451       -1.05748
C          2.32500       -0.06432       -0.39404
C          2.92680       -1.32372        0.29990
O          3.87647       -1.06925        1.35242
C          4.72966        0.00302        0.94304
C          5.17234        1.20417        1.66109
C          3.81466        1.23655        1.01847
C          3.15349        1.23416       -0.31307
H          3.42636       -1.91883       -0.47231
H          2.10637       -1.90787        0.72708
H          5.34385       -0.19384        0.06295
H          5.95219        1.81576        1.22165
H          5.22511        1.15190        2.74371
H          3.03100        1.29501        1.77690
H          3.86432        1.25734       -1.14563
H          2.47703        2.08979       -0.40136
