20

C          0.98710        0.02644        0.15210
C          2.50495        0.06962        0.06998
C          3.15033       -0.32956        1.39856
C          4.64307       -0.29348        1.32596
C          5.49267       -1.29848        1.53082
C          6.87521       -0.78556        1.41124
C          6.62040        0.59236        0.81270
O          5.24254        0.93616        1.06081
H          0.54796        0.33021       -0.80341
H          0.61659        0.70522        0.92689
H          0.63502       -0.98408        0.38202
H          2.81505        1.08333       -0.21130
H          2.84135       -0.60272       -0.72862
H          2.81298       -1.33482        1.68076
H          2.81783        0.34944        2.19305
H          5.22534       -2.31314        1.78337
H          7.50719       -1.39589        0.76051
H          7.34425       -0.71510        2.39795
H          6.77920        0.58857       -0.27295
H          7.26960        1.35639        1.25175
