18

C          1.02440       -0.11181       -0.02396
O          2.43700       -0.03658       -0.18737
C          3.11957       -0.63734        0.83538
C          4.45459       -0.59535        0.91752
C          5.37126        0.14064       -0.02641
C          6.67272        0.19411        0.71701
C          6.62270       -0.51370        1.85269
C          5.28107       -1.15453        2.04584
H          0.55810        0.42614       -0.85422
H          0.71135        0.36359        0.91227
H          0.68802       -1.15335       -0.05540
H          2.51131       -1.13880        1.57668
H          5.00753        1.14990       -0.23999
H          5.49986       -0.41493       -0.96154
H          7.53598        0.73884        0.36212
H          7.44162       -0.62410        2.54952
H          4.86126       -0.88927        3.02062
H          5.37295       -2.24162        1.96385
