17

N          1.04038        0.08562       -0.27497
C          2.48424       -0.02279       -0.07888
C          2.91848       -1.33383        0.65352
N          3.32069       -0.87716        1.99260
C          3.53724       -1.76080        3.01357
N          3.84556       -1.52491        4.24082
C          3.38540        0.49804        2.00574
C          2.94381        1.04539        0.86917
H          0.71019       -0.66549       -0.87640
H          0.82278        0.95989       -0.74846
H          2.99379        0.05492       -1.04496
H          3.77857       -1.78359        0.14079
H          2.11326       -2.07588        0.69703
H          3.40630       -2.81252        2.70369
H          3.91076       -0.51455        4.37677
H          3.74225        1.02670        2.87925
H          2.89529        2.10593        0.67130
