18

C          2.36356       -0.84732        1.22129
O          2.36400        0.11595        0.17804
C          2.75670        1.40720        0.64724
C          2.91585        2.32478       -0.57580
C          3.16761        3.73942       -0.14587
C          2.83269        4.12716        1.09280
C          2.16651        3.20742        2.07937
O          1.76238        1.95800        1.51266
H          2.01640       -1.79824        0.80845
H          1.68711       -0.55445        2.02962
H          3.37665       -0.98899        1.61032
H          3.71270        1.31808        1.18286
H          2.00662        2.30192       -1.18994
H          3.73378        1.96022       -1.20718
H          3.62591        4.42848       -0.84839
H          3.03036        5.14332        1.41695
H          1.26171        3.68915        2.46639
H          2.83036        3.01533        2.92804
