14

N         -1.27672       -1.15462        0.23397
C         -2.07045       -0.00468        0.13083
C         -1.34396        1.12852        0.03270
C          0.00766        0.72597        0.01980
C          1.30778        1.14146       -0.06397
C          2.10128       -0.05127       -0.00950
C          1.24777       -1.14058        0.10832
N         -0.00629       -0.63241        0.12626
H         -1.48021       -1.81916       -0.50671
H         -3.14672       -0.10954        0.11465
H         -1.71084        2.13813       -0.06487
H          1.66238        2.15970       -0.15388
H          3.18195       -0.10368       -0.04851
H          1.43758       -2.20054        0.18751
