20

C          1.07507        0.02533        0.09856
C          2.58838        0.05893        0.02590
O          3.11264       -0.75368        1.07345
C          4.53623       -0.81294        1.02386
C          5.01437       -1.69709        2.12950
C          4.64785       -3.16064        2.16347
C          6.05679       -2.74739        1.84941
O          7.03166       -2.95517        2.87946
H          0.63399        0.64976       -0.68356
H          0.72661        0.38000        1.07393
H          0.70680       -0.99926       -0.01903
H          2.94573        1.08739        0.14608
H          2.91942       -0.32511       -0.94554
H          4.95044        0.19328        1.15669
H          4.85244       -1.19565        0.04658
H          5.03557       -1.17248        3.07671
H          4.03615       -3.55021        1.35734
H          4.43336       -3.60682        3.12694
H          6.39029       -2.88384        0.82512
H          6.63585       -2.96337        3.76699
