20

C          0.91381        2.30695        0.08795
O          2.33352        2.26873        0.15731
C          2.80330        1.02555        0.67218
C          4.32880        1.04646        0.74462
C          4.90639        2.18097        1.61116
C          4.42950        2.10848        3.06299
C          6.38629        2.13421        1.58089
C          7.58748        2.11202        1.57035
H          0.61543        3.26611       -0.34373
H          0.48172        2.22540        1.08982
H          0.53697        1.50318       -0.55201
H          2.48521        0.21545        0.00523
H          2.36767        0.84144        1.66011
H          4.72025        1.15811       -0.27586
H          4.68006        0.07284        1.11040
H          4.59104        3.14589        1.19502
H          4.66781        1.13757        3.51309
H          3.34913        2.26358        3.13739
H          4.91094        2.88148        3.67292
H          8.65300        2.10285        1.57049
