16

O          2.32856       -1.01017        0.66169
C          2.15381        0.10275        0.16946
C          3.15238        1.24308        0.30478
C          2.40693        2.57818        0.32318
C          3.04116        3.65536       -0.55027
O          3.53256        3.20873       -1.81466
C          4.22446        2.03437       -1.78276
C          4.11358        1.10406       -0.83219
H          1.28323        0.28747       -0.47875
H          3.69424        1.10932        1.24892
H          2.35429        2.94947        1.35530
H          1.36277        2.44990        0.01256
H          3.85907        4.15303       -0.01623
H          2.28990        4.42648       -0.75774
H          4.85147        1.92287       -2.65938
H          4.69881        0.18826       -0.90422
