18

C          1.01940        0.09031        0.03830
C          2.53940        0.09031        0.03830
C          3.84325        0.09031        0.03830
C          5.36325        0.09031        0.03830
O          5.83210       -0.95257        0.88556
C          7.19888       -1.12470        1.02540
C          8.19882       -0.25380        0.31787
C          7.61675       -2.11223        1.82770
H          0.64622        0.90892       -0.58336
H          0.64625        0.21937        1.05808
H          0.64625       -0.85738       -0.35979
H          5.70539        1.06371        0.40753
H          5.70539       -0.07174       -0.99008
H          7.76158        0.52178       -0.31223
H          8.83731       -0.86533       -0.32948
H          8.83731        0.25458        1.04901
H          6.90106       -2.74564        2.34229
H          8.67069       -2.31080        1.98902
