19

C          1.30353       -0.10495       -0.37437
C          2.71986        0.19011        0.01593
C          3.57203       -0.92021        0.58239
N          3.81693       -0.44239       -0.77640
C          4.88287        0.58709       -0.87436
C          4.22113        1.90957       -0.58950
C          4.48465        3.07253       -1.19816
C          3.05829        1.63303        0.31495
H          1.17043       -1.14384       -0.69277
H          0.98678        0.54309       -1.19913
H          0.63703        0.07512        0.47589
H          3.15466       -1.91860        0.64482
H          4.30139       -0.69517        1.34920
H          5.31818        0.56447       -1.87796
H          5.68689        0.39712       -0.15221
H          5.28915        3.15756       -1.92490
H          3.88514        3.95757       -1.01229
H          2.21756        2.30625        0.11324
H          3.35335        1.74368        1.36272
