12

C          2.08045        0.00793        0.00497
O          1.27439        1.22925        0.00266
N          0.02072        0.66445       -0.00115
C         -1.23951        1.13553       -0.00196
C         -1.99031       -0.03609       -0.00372
N         -1.18611       -1.17473       -0.00348
C          0.01366       -0.66826       -0.00169
O          1.22860       -1.17858        0.00128
H          2.70271       -0.00297        0.90587
H          2.70954       -0.00208       -0.89118
H         -1.49571        2.18350       -0.00110
H         -3.07000       -0.12550       -0.00476
