21

C          1.51669       -0.49522       -0.73026
N          2.42801        0.18613        0.17951
C          3.10871        1.33804       -0.43806
C          2.33842        2.52573       -0.94041
C          3.16755        2.66061        0.30757
C          2.43952        2.86676        1.60414
O          4.37617        3.44357        0.12774
C          5.27390        3.41697        1.23031
H          1.12408       -1.39418       -0.24453
H          2.01629       -0.79833       -1.65527
H          0.66034        0.13991       -0.97640
H          3.12216       -0.47999        0.51725
H          3.98684        1.07284       -1.02590
H          1.26000        2.52995       -0.84593
H          2.69591        3.01824       -1.83894
H          1.41754        2.47463        1.57037
H          2.37582        3.93367        1.84074
H          2.96128        2.35997        2.42222
H          6.25308        3.76275        0.88909
H          5.37909        2.40551        1.63446
H          4.92153        4.10074        2.00873
