21

C          0.93633       -0.06915       -0.11769
C          2.46777       -0.04412       -0.05645
C          2.96314        1.40585       -0.07937
O          2.83711       -0.65193        1.18935
C          3.04537       -0.88242       -1.23204
N          4.51994       -0.87681       -1.27262
C          5.05599       -1.64707       -2.39327
C          5.09317       -0.14280       -2.39674
H          0.50234        0.47294        0.73034
H          0.56134       -1.09695       -0.05015
H          0.56031        0.37821       -1.04346
H          2.51024        1.98509        0.73392
H          2.71914        1.89788       -1.02654
H          4.04554        1.46163        0.07835
H          2.68522       -0.00635        1.89859
H          2.60665       -0.53062       -2.17612
H          2.72408       -1.92412       -1.09835
H          4.36182       -2.15054       -3.05496
H          5.97559       -2.18183       -2.19248
H          4.43519        0.39234       -3.06949
H          6.04311        0.34081       -2.20360
