16

C          1.06668        0.09884        0.06739
N          2.51116        0.05540        0.06974
C          3.32206        1.16765        0.06938
C          4.61690        0.71631        0.07512
O          5.69781        1.50695        0.07775
C          4.60789       -0.68903        0.07853
C          3.28664       -1.08232        0.07582
N          2.76315       -2.32033        0.08077
H          0.73027        1.13882        0.06751
H          0.70328       -0.40602        0.96606
H          0.70663       -0.40459       -0.83346
H          2.90484        2.16454        0.06640
H          5.42552        2.43948        0.07848
H          5.46910       -1.34110        0.08406
H          3.36170       -3.14159        0.05013
H          1.77111       -2.52312        0.03238
