19

C          0.96919        0.10436        0.03723
N          2.42375        0.06211        0.10398
C          2.94194       -1.00573        0.97323
C          3.82205       -0.18911        1.91375
C          4.47641        0.84610        0.95152
C          2.97193        1.26437        0.78599
C          2.86865        0.96477        2.33511
O          3.34129        1.95000        3.28086
H          0.59357       -0.79224       -0.46710
H          0.64277        0.96478       -0.55730
H          0.48477        0.16800        1.01672
H          3.53194       -1.72131        0.39139
H          2.16579       -1.55094        1.52280
H          4.43443       -0.68035        2.66715
H          4.98170        0.44461        0.06515
H          5.14912        1.58149        1.40206
H          2.73843        2.25115        0.38750
H          1.88528        0.62941        2.68326
H          4.15648        2.33145        2.91894
