15

C          1.06386       -0.06027       -0.04285
C          2.55663       -0.07226       -0.02822
C          3.28716       -0.24709       -1.13888
C          4.76316       -0.41458       -1.05592
O          5.42139       -0.32780       -0.03458
O          5.17745       -0.76438       -2.31270
N          6.28201       -1.63178       -2.22328
C          6.70810       -1.88618       -3.41237
H          0.68070        0.13135        0.96450
H          0.67860       -1.03421       -0.36351
H          0.67758        0.71806       -0.70720
H          3.04460        0.01747        0.94113
H          2.82873       -0.36399       -2.11041
H          7.52436       -2.60922       -3.55725
H          6.28700       -1.41600       -4.31752
