21

C          0.92892       -0.05915       -0.08680
C          2.46477       -0.04089       -0.03881
C          3.01093       -0.41249       -1.42217
O          2.86789        1.30866        0.24748
C          2.97716       -0.92038        1.13346
N          2.59854       -0.44639        2.49362
C          3.13111       -2.41647        0.96160
C          4.35523       -1.55417        1.07011
H          0.55671        0.57146       -0.90301
H          0.49518        0.35463        0.83066
H          0.54276       -1.07273       -0.22463
H          2.61232        0.26204       -2.18927
H          2.74753       -1.43451       -1.71079
H          4.09855       -0.30209       -1.47036
H          2.59621        1.86221       -0.50332
H          1.58686       -0.48023        2.61055
H          2.83848        0.54881        2.53636
H          2.92291       -2.87713        0.00515
H          2.89454       -3.05636        1.80531
H          4.97538       -1.42022        0.19471
H          4.93185       -1.60875        1.98859
