16

C          1.26067        0.35212        0.25772
N          2.69385        0.15658        0.08270
C          3.03581       -1.07280       -0.67025
C          2.51675       -1.10193       -2.11340
C          2.88528       -2.35847       -2.78226
N          3.19459       -3.34679       -3.30662
C          4.56234       -1.14770       -0.67770
O          5.20960       -1.69747        0.21080
H          1.09271        1.10087        1.03915
H          0.74966       -0.56652        0.56173
H          0.80480        0.73840       -0.65873
H          3.12057        0.07243        1.01248
H          2.67352       -1.95151       -0.12001
H          2.91585       -0.25504       -2.68479
H          1.42446       -1.01448       -2.12766
H          5.07397       -0.57505       -1.47206
