17

C          1.06213        0.10093        0.03271
C          2.39542        0.07006        0.07424
O          3.15479        1.18437       -0.17148
C          4.51700        1.13206       -0.06772
C          5.29663        0.36118        0.69609
C          6.72372        0.69546        0.45581
N          6.73448        1.60769       -0.70530
C          5.33957        2.08537       -0.85981
H          0.48001       -0.79563        0.21269
H          0.53190        1.02165       -0.18591
H          2.94557       -0.83790        0.27396
H          4.96662       -0.37945        1.40750
H          7.31099       -0.20259        0.23766
H          7.15604        1.19277        1.33024
H          6.95069        1.04804       -1.53031
H          5.05543        2.09096       -1.91639
H          5.24863        3.10117       -0.46180
