16

C          0.93204       -0.06175        0.31164
C          2.45176       -0.00287        0.20231
C          2.88669        1.23338       -0.58485
N          4.14836        1.00407       -1.28146
N          4.24478       -0.04289       -2.12946
C          3.70628       -1.14915       -1.72585
C          2.95498       -1.27374       -0.43413
O          2.75685       -2.39906        0.00838
H          0.53575        0.84381        0.78110
H          0.61163       -0.92399        0.90519
H          0.47178       -0.16240       -0.67831
H          2.89747        0.03702        1.20424
H          3.01559        2.07017        0.11210
H          2.12118        1.54219       -1.30746
H          4.44058        1.86370       -1.75987
H          3.76615       -2.06903       -2.32297
