18

C          1.11427       -1.41318       -0.90773
C          2.61651       -1.45580       -0.94715
O          3.26238       -2.49192       -0.81883
N          3.19088       -0.21070       -1.16719
N          4.59832       -0.08918       -1.18154
C          5.10367       -0.21934       -2.55558
C          6.63041       -0.11495       -2.60038
O          7.10411       -0.28468       -3.93400
H          0.72730       -2.40635       -0.66242
H          0.72858       -1.11347       -1.88634
H          0.77917       -0.70730       -0.14344
H          2.63023        0.63626       -1.11397
H          4.97129       -0.87630       -0.63247
H          4.67297        0.55991       -3.19656
H          4.79974       -1.18115       -2.98860
H          7.10136       -0.87776       -1.97111
H          6.96064        0.86810       -2.24961
H          6.89614       -1.19671       -4.20180
