15

C          0.91618        0.00880       -0.06163
N          2.36366       -0.03775       -0.05737
C          3.17354        1.06943       -0.05218
C          4.48101        0.64313       -0.04766
C          4.45835       -0.77059       -0.05085
C          3.13426       -1.18251       -0.05748
C          2.63650       -2.53999       -0.06338
O          1.45137       -2.86149       -0.06901
H          0.58579        1.05096       -0.06037
H          0.55009       -0.49099        0.83850
H          0.55536       -0.48714       -0.96600
H          2.75823        2.06918       -0.05185
H          5.35488        1.28203       -0.04271
H          5.32297       -1.42272       -0.04872
H          3.41488       -3.32297       -0.06271
