20

C          1.72051       -0.37367       -0.46423
C          3.03936        0.02016        0.12885
C          3.83007       -1.05262        0.84345
C          4.36686       -0.41693       -0.41294
N          4.44416       -1.20681       -1.64957
C          5.29936        0.77427       -0.27144
N          4.38275        1.92681       -0.20002
C          3.18528        1.46501        0.52864
H          1.71371       -1.40784       -0.82396
H          1.45656        0.27960       -1.30144
H          0.93652       -0.28608        0.29622
H          3.47340       -2.07528        0.79875
H          4.29150       -0.80438        1.79191
H          3.99334       -2.11210       -1.53601
H          5.41680       -1.41405       -1.87992
H          5.98634        0.87967       -1.11718
H          5.89360        0.70383        0.64707
H          4.08617        2.10800       -1.16123
H          2.32181        2.07314        0.24356
H          3.33494        1.56525        1.60982
