23

C          1.03739        0.00211        0.15739
C          2.54908        0.03965       -0.05085
C          3.03847       -0.11495       -1.51846
C          2.57941       -1.47568       -2.08958
C          2.47202        1.02106       -2.41872
O          2.95343        0.92889       -3.75935
N          4.52411       -0.17678       -1.55011
C          5.23491        0.99425       -1.06388
H          0.81296        0.08836        1.22555
H          0.59849       -0.93411       -0.19397
H          0.54254        0.83578       -0.34730
H          2.99485       -0.75239        0.56578
H          2.90037        0.99198        0.36298
H          1.48889       -1.53597       -2.16628
H          2.91683       -2.30679       -1.45886
H          2.97536       -1.64804       -3.09790
H          2.73255        2.01206       -2.03198
H          1.38084        0.96851       -2.47409
H          3.92047        1.01884       -3.71133
H          4.84350       -0.42612       -2.48499
H          5.03885        1.18670       -0.00549
H          5.00765        1.89246       -1.64441
H          6.31220        0.81579       -1.14937
