18

C          0.85048       -0.03076        0.03484
C          2.37895       -0.01375       -0.05678
C          2.96673       -1.36954       -0.45308
N          2.57846       -1.74333       -1.81200
N          2.83972       -0.73382       -2.75912
C          2.76744        0.61601       -2.49313
O          2.71802        1.43510       -3.40940
C          2.86734        1.04410       -1.04443
H          0.51405       -0.80280        0.73488
H          0.37620       -0.22027       -0.93347
H          0.47922        0.93285        0.39948
H          2.75826        0.24694        0.93959
H          2.62851       -2.14748        0.24081
H          4.06110       -1.34207       -0.38200
H          1.57673       -1.95325       -1.83537
H          2.80705       -0.97515       -3.74777
H          2.30925        1.97821       -0.91401
H          3.92599        1.26089       -0.85532
