21

C          1.45880        0.67127        0.89246
C          2.54033        0.11819       -0.02237
C          3.04369       -1.26121        0.41903
O          3.61555       -1.17797        1.75380
C          2.07993       -2.46624        0.21052
C          2.89982       -2.91853       -1.00549
C          3.98780       -1.89115       -0.66359
N          5.09856       -2.58036        0.00430
H          1.16571        1.67256        0.56143
H          1.80512        0.75288        1.92710
H          0.56763        0.03662        0.88270
H          3.38136        0.82227       -0.04020
H          2.14432        0.07240       -1.04469
H          2.85051       -1.14834        2.35398
H          2.09101       -3.19013        1.03400
H          1.03761       -2.21940       -0.01232
H          2.39719       -2.71006       -1.95783
H          3.18999       -3.97468       -1.00388
H          4.29168       -1.25380       -1.49864
H          4.89014       -2.73106        0.99728
H          5.93344       -1.99411        0.04352
