16

C          0.90462       -0.01092        0.09715
C          2.42393        0.04648        0.05647
C          3.08026       -1.13721        0.72483
O          3.24858       -0.74242        2.08993
N          3.38572        0.66764        2.10858
C          2.93400        1.11107        0.97674
N          2.89122        2.43286        0.59304
O          2.86982        3.32070        1.67569
H          0.53465       -0.85517       -0.49340
H          0.47122        0.90618       -0.31652
H          0.52796       -0.11695        1.12041
H          2.77748        0.18648       -0.96875
H          4.07107       -1.34324        0.30361
H          2.48169       -2.05275        0.67607
H          2.22761        2.67880       -0.13784
H          3.48908        2.90925        2.31746
