19

C          1.04200        0.49614       -1.81914
C          2.53422        0.39432       -1.90102
O          3.14065       -0.14965       -2.81273
O          3.09903        0.99968       -0.81982
C          4.53495        1.02798       -0.80326
C          5.07131        2.18780       -1.64069
C          4.56925        3.53661       -1.12734
N          5.07889        4.62030       -1.96046
H          0.59907        0.04071       -2.70898
H          0.74388        1.54726       -1.78358
H          0.68214       -0.03727       -0.93624
H          4.94647        0.07086       -1.14509
H          4.84118        1.14696        0.24207
H          4.75827        2.06257       -2.68440
H          6.16743        2.16239       -1.62263
H          4.89412        3.69120       -0.09261
H          3.47492        3.57034       -1.14143
H          6.09754        4.63188       -1.93338
H          4.77038        5.51471       -1.58171
