17

C          2.29389        0.38923       -1.37984
C          2.49130        0.04384        0.08566
C          3.01720        1.22150        0.85350
N          2.35787        2.16693        1.44227
O          0.97589        1.98450        1.31041
C          4.43820        1.42127        0.98733
C          5.72010        1.61272        1.12916
C          7.21451        1.83590        1.29450
H          1.93119       -0.48578       -1.92997
H          3.23225        0.71532       -1.84029
H          1.56399        1.19550       -1.50251
H          3.20113       -0.78600        0.17487
H          1.54475       -0.29139        0.52158
H          0.61950        2.72876        1.83180
H          7.66621        0.97792        1.80012
H          7.39380        2.73504        1.89050
H          7.68401        1.95908        0.31458
