14

C          0.96353       -0.09516        0.10864
C          2.44203        0.06479        0.13415
C          3.13956        1.19749        0.23083
N          2.79694        2.52045        0.30452
C          4.54614        0.72811        0.18217
O          5.52893        1.44971        0.12018
N          4.51463       -0.63876        0.18009
O          3.18817       -1.10674        0.06465
H          0.44453        0.86829        0.12679
H          0.63148       -0.67318        0.97648
H          0.65462       -0.62604       -0.79752
H          1.90668        2.74226       -0.12922
H          3.56137        3.12345       -0.00262
H          5.29397       -1.23975       -0.04559
