16

C          1.22725       -0.13078        0.12119
N          2.67210        0.07436        0.10700
C          3.33078       -1.02778        0.19427
N          4.68540       -1.10341        0.14997
O          5.26179       -2.35836        0.30898
C          5.54123       -2.84037       -1.00906
C          6.23611       -4.19087       -0.94809
C          6.83217       -5.34932       -0.89578
H          0.72687        0.83758        0.02037
H          0.89876       -0.58198        1.06387
H          0.90461       -0.75784       -0.71694
H          2.83920       -2.01448        0.27799
H          5.25986       -0.27005        0.23363
H          6.19338       -2.13393       -1.53692
H          4.60569       -2.95743       -1.56917
H          7.31938       -6.29593       -0.84739
