16

O          2.72100        0.37721       -1.28251
C          2.40514        0.07313        0.08181
C          2.95267       -1.31177        0.45704
O          2.49739       -2.27028       -0.49463
C          4.47267       -1.31177        0.45704
C          5.77652       -1.31177        0.45704
C          7.29652       -1.31177        0.45704
C          7.97334       -2.07347       -0.40692
H          2.47537        1.30791       -1.42889
H          1.31339        0.07676        0.16148
H          2.81900        0.85566        0.72605
H          2.59328       -1.60687        1.44796
H          2.71080       -1.86687       -1.35954
H          7.79157       -0.67400        1.18140
H          7.46230       -2.70715       -1.12529
H          9.05784       -2.07774       -0.41080
