17

C          1.04529        0.12549       -0.20588
C          2.55985        0.03793       -0.07679
C          3.08638       -1.31107       -0.57008
O          4.50313       -1.34252       -0.77194
C          5.24253       -0.61867        0.18195
C          5.20050        0.90281        0.13396
N          4.24831        1.68358       -0.28775
O          3.15574        1.04149       -0.90347
H          0.55531       -0.66306        0.37646
H          0.73001        0.04165       -1.25044
H          0.69112        1.09570        0.15510
H          2.81891        0.20089        0.97699
H          2.64650       -1.55657       -1.54385
H          2.81088       -2.11276        0.12314
H          6.29431       -0.89465        0.04706
H          4.97490       -0.93502        1.19735
H          6.06660        1.40570        0.59776
