19

C          2.95368        0.41484        1.70158
C          2.35453        0.23156        0.30282
C          2.17581        1.60662       -0.28186
O          2.77491        2.05585       -1.25429
C          3.20353       -0.78938       -0.46590
C          3.99988       -0.66697       -1.81080
C          3.58196       -2.15359       -1.95604
N          2.34026       -1.77054       -1.22221
H          2.27411        0.98045        2.34837
H          3.90627        0.95505        1.65545
H          3.13813       -0.55096        2.18023
H          1.34135       -0.17108        0.43378
H          1.44600        2.25021        0.23692
H          3.83396       -1.31717        0.26730
H          3.58015       -0.02579       -2.59265
H          5.07534       -0.48653       -1.73038
H          4.21222       -2.86163       -1.39669
H          3.43873       -2.54158       -2.96636
H          1.91991       -2.51000       -0.66253
