17

C          1.09430        0.09601       -0.00593
N          2.54858        0.05791       -0.02681
C          3.03217       -1.31618       -0.04341
C          4.55217       -1.31618       -0.04341
C          5.85603       -1.31618       -0.04341
C          7.28414       -1.35540       -0.07031
C          8.01259       -0.77042       -1.24962
O          7.89622       -0.06066       -0.01012
H          0.75590        1.13637        0.01845
H          0.68910       -0.41031        0.87645
H          0.67449       -0.36487       -0.90617
H          2.91651        0.52452        0.80189
H          2.68749       -1.83813       -0.94324
H          2.68389       -1.86967        0.83622
H          7.76693       -2.15781        0.47488
H          7.44018       -0.40230       -2.09203
H          8.98186       -1.17919       -1.50498
