20

C          1.04421       -1.21147       -0.23614
C          2.55714       -1.31070       -0.36129
N          3.19493       -0.79840        0.85604
N          4.61915       -0.94633        0.80916
C          5.35193        0.00130       -0.02024
C          5.19656       -1.74048        1.80092
C          6.70311       -1.75252        1.91802
O          4.51129       -2.41583        2.57763
H          0.56825       -1.52986       -1.16970
H          0.72811       -0.18211       -0.03475
H          0.66957       -1.85033        0.57023
H          2.86987       -0.71854       -1.22843
H          2.84302       -2.35229       -0.54302
H          2.87481       -1.36722        1.65425
H          4.67506        0.59201       -0.64394
H          6.03406       -0.55797       -0.66762
H          5.92792        0.67138        0.62326
H          7.21455       -1.20579        1.12675
H          7.04948       -2.78929        1.88297
H          6.98252       -1.30968        2.87827
