17

C          1.09886        0.03355       -0.00797
C          2.58451        0.10952        0.06005
N          3.39813       -0.65860       -0.87179
C          3.37826        0.79403       -1.03066
C          4.58123        1.54303       -0.65234
C          5.84766        1.11826       -0.78139
C          6.97878        1.96036       -0.35762
O          8.13839        1.58387       -0.47143
H          0.72471       -0.67175        0.74152
H          0.74092       -0.29509       -0.98927
H          0.66230        1.01447        0.20251
H          2.94899        0.16333        1.07989
H          2.83086       -1.10230       -1.59539
H          2.84658        1.17702       -1.89606
H          4.39392        2.53051       -0.23675
H          6.09475        0.13992       -1.18116
H          6.72396        2.94696        0.06440
