20

C          1.04927       -0.06755       -0.07796
N          2.50810       -0.02800       -0.05432
C          3.03408       -0.94964        0.96485
C          4.57613       -0.95770        1.02039
C          5.15005        0.41751        1.37265
C          5.03593       -2.00321        2.03360
N          6.38614       -2.16286        2.15182
O          4.28033       -2.69664        2.70548
H          0.68038        0.62909       -0.83698
H          0.62565        0.23316        0.88619
H          0.68143       -1.06535       -0.33736
H          2.79456        0.92493        0.16688
H          2.68412       -1.96511        0.73869
H          2.63321       -0.67955        1.95117
H          4.96394       -1.26693        0.04058
H          4.77668        0.76031        2.34350
H          4.88872        1.16706        0.61969
H          6.24361        0.39929        1.43014
H          7.06216       -1.62257        1.63194
H          6.71920       -2.85227        2.81332
