19

C          0.98006       -0.19210       -0.13801
C          2.49995       -0.16013       -0.20543
N          3.05130       -0.94195        0.89818
C          4.51679       -0.97881        0.90466
C          5.07976       -1.86377        2.04416
O          5.59129       -1.01117        3.09322
C          5.66696        0.22252        2.48604
C          5.11447        0.32464        1.28405
H          0.55401        0.43402       -0.92790
H          0.61833        0.18792        0.82385
H          0.59820       -1.21080       -0.26961
H          2.82324        0.88429       -0.14401
H          2.82845       -0.56410       -1.16960
H          2.68699       -1.89243        0.86040
H          4.89124       -1.34906       -0.05599
H          5.91512       -2.47456        1.67843
H          4.33477       -2.54570        2.46983
H          6.13704        0.99163        3.07638
H          5.07651        1.22510        0.69330
