18

C          1.10634       -0.15773       -0.03641
N          2.54663        0.02979       -0.10468
C          3.29140       -0.93642       -0.90616
C          3.24751        0.93345        0.70203
C          2.48300        1.83861        1.71849
O          1.19046        2.27684        1.33745
N          4.55803        0.97302        0.62126
O          5.13461        1.87551        1.51623
H          0.77701       -1.03892       -0.59785
H          0.59246        0.70140       -0.47881
H          0.77472       -0.29774        0.99658
H          2.63601       -1.56394       -1.51984
H          3.87248       -1.60126       -0.25750
H          3.97515       -0.42305       -1.59070
H          3.05990        2.74074        1.93842
H          2.38967        1.26910        2.64864
H          1.32466        2.84126        0.55697
H          6.08646        1.77199        1.33088
