21

C          0.85102       -0.05072       -0.09152
C          2.36833       -0.10661       -0.02655
C          3.05621        0.98214        0.80670
C          3.61283       -0.14283        1.69075
C          5.11981       -0.38953        1.61179
C          5.51873       -1.56365        2.50325
O          5.05890       -2.79869        1.96767
N          2.85149       -1.13561        0.91373
H          0.52190        0.82984       -0.65310
H          0.39928        0.00301        0.90626
H          0.45150       -0.93646       -0.59672
H          2.80554       -0.21083       -1.02840
H          2.37966        1.66579        1.33179
H          3.80100        1.57383        0.26523
H          3.26771       -0.05758        2.72960
H          5.43188       -0.57810        0.57695
H          5.64522        0.50744        1.95921
H          5.11546       -1.45287        3.51514
H          6.60874       -1.62622        2.57580
H          4.22346       -2.60896        1.49274
H          2.09977       -1.57817        1.44462
