17

C          1.67609        1.55753        1.74422
C          2.33920        0.78671        0.87314
C          3.03601       -0.49285        1.25077
C          4.53775       -0.42659        0.97935
C          5.25624       -1.71073        1.32949
O          5.63853       -1.56104        2.70203
N          5.81184       -0.17576        2.94199
C          5.21055        0.43979        1.98153
H          1.18142        2.46812        1.41985
H          1.60326        1.29933        2.79718
H          2.37199        1.08362       -0.17376
H          2.59396       -1.30297        0.65796
H          2.84330       -0.73390        2.30448
H          4.75307       -0.10446       -0.04345
H          6.16961       -1.83655        0.73690
H          4.63732       -2.60539        1.21413
H          5.15901        1.53519        1.90585
