21

C          3.07373        0.84574       -1.05086
C          2.61431       -0.03028        0.12144
N          1.13665        0.01917        0.15374
C          3.13627       -1.50848        0.04763
C          2.62074       -2.33374        1.24133
O          2.62138       -2.11954       -1.14974
C          4.68729       -1.53944       -0.00642
O          5.24461       -2.85479        0.00034
H          2.67418        1.86250       -0.95704
H          2.73933        0.44384       -2.01374
H          4.16288        0.94044       -1.08022
H          2.98141        0.41928        1.05252
H          0.77948       -0.21476       -0.77388
H          0.84194        0.98448        0.31095
H          1.52618       -2.32599        1.29569
H          3.01466       -1.95421        2.18923
H          2.89251       -3.39022        1.14207
H          1.66460       -2.22820       -1.00969
H          5.11585       -0.99404        0.84133
H          5.04823       -1.07765       -0.92969
H          4.96673       -3.30330        0.81473
