17

C          2.20088       -0.12771        2.02294
N          1.85638       -0.55743        0.66950
C          2.95315       -1.31409        0.00636
C          3.31622       -2.66981        0.57495
C          2.62515       -2.59563       -0.75189
O          3.44220       -2.96031       -1.88011
C          4.01128       -0.42050       -0.57426
O          5.09338       -0.86190       -0.94779
H          1.37997       -0.36485        2.70784
H          2.35503        0.95474        2.04293
H          3.10284       -0.61061        2.41442
H          1.00440       -1.11717        0.70127
H          2.74429       -3.06025        1.41023
H          4.36204       -2.94976        0.60260
H          1.58532       -2.90447       -0.79270
H          4.34350       -2.58042       -1.81748
H          3.75441        0.64948       -0.68295
