17

C         -1.67865        0.46716        0.06035
C         -0.63695        1.14273        0.95066
C          0.74866        1.13343        0.38348
N          1.02346        0.74795       -0.99812
C          1.40798       -0.17371        0.07000
C          0.68731       -1.43835        0.15931
C         -0.62098       -1.73739        0.18065
O         -1.73520       -0.95601        0.16461
H         -1.60994        0.76948       -0.98685
H         -2.65939        0.80158        0.40909
H         -0.62194        0.68293        1.93944
H         -0.93029        2.19095        1.08318
H          1.36221        1.93098        0.79390
H          1.84793        1.22285       -1.36519
H          2.47343       -0.24582        0.27169
H          1.34456       -2.30448        0.24860
H         -0.94487       -2.76892        0.24919
