21

C          0.86839        0.00958        0.15648
N          2.32219       -0.02771        0.00958
C          2.81466       -1.37029       -0.31991
C          2.54119       -1.80173       -1.76237
C          3.02039       -0.76056       -2.77057
O          4.44395       -0.78795       -2.87497
C          2.54087        0.64245       -2.40723
C          2.81223        0.97897       -0.93913
H          0.54415       -0.69726        0.92846
H          0.33449       -0.22940       -0.76861
H          0.54401        1.00167        0.48993
H          2.39139       -2.10943        0.37169
H          3.89635       -1.39381       -0.13574
H          1.46604       -1.97012       -1.89673
H          3.04521       -2.75820       -1.94481
H          2.64107       -1.02285       -3.76423
H          4.82386       -0.55768       -2.01034
H          1.46600        0.72259       -2.60862
H          3.04576        1.38445       -3.03712
H          2.38592        1.96185       -0.70242
H          3.89353        1.09333       -0.78992
