19

C          1.41222        0.05229        0.90266
C          2.49116       -0.07190       -0.16358
C          3.41583       -1.30732       -0.68143
C          4.15553       -0.68217       -1.84622
C          3.18625       -0.00431       -2.48193
C          1.96676       -0.29909       -1.64686
C          2.12111       -1.87132       -1.37885
N          1.21512       -2.49742       -0.41753
H          1.69495       -0.47018        1.82205
H          0.43663       -0.31034        0.56858
H          1.26280        1.10898        1.15845
H          3.11854        0.82362       -0.01532
H          3.98999       -1.91359        0.01743
H          5.19990       -0.77735       -2.09201
H          3.24648        0.60093       -3.36990
H          1.01693        0.12904       -1.96649
H          2.25479       -2.47807       -2.28307
H          1.44555       -2.33462        0.56126
H          1.23185       -3.51647       -0.49281
