20

C          0.97243       -1.83086        0.52317
N          2.42357       -1.86881        0.58770
C          2.96698       -0.66623        1.22863
C          4.50191       -0.65870        1.14227
O          4.91079       -0.72133       -0.25816
C          5.17552        0.43910        2.01266
N          6.14418       -0.56043        2.49397
C          5.21993       -1.64568        2.10219
H          0.60641       -2.75314        0.06292
H          0.61521       -0.98680       -0.07628
H          0.53758       -1.77083        1.52632
H          2.82182       -1.94792       -0.35205
H          2.64155       -0.62824        2.27520
H          2.58176        0.23200        0.72992
H          4.55891        0.09106       -0.65709
H          4.54310        0.85574        2.80622
H          5.62920        1.26858        1.46117
H          6.36195       -0.52218        3.48810
H          4.60332       -2.01693        2.92995
H          5.71019       -2.49814        1.62329
