14

C          1.17550       -0.00994        0.12545
C          2.50159        0.07212       -0.00530
C          3.34998        1.29870       -0.09630
C          4.62257        0.71181       -0.65820
O          5.57277        1.35083       -1.08422
N          4.57185       -0.64978       -0.60774
C          3.35903       -1.10461       -0.22875
N          3.07372       -2.34315       -0.11018
H          0.55866        0.87543        0.22443
H          0.67369       -0.97616        0.11664
H          3.55737        1.72026        0.89290
H          2.93825        2.04570       -0.77651
H          5.34068       -1.21863       -0.91758
H          3.88760       -2.92385       -0.32616
