17

C         -1.59078       -0.05636        0.92204
C         -1.24460       -0.85922       -0.32137
C          0.08126       -1.54050       -0.50787
C          1.21252       -0.78484        0.10805
O          1.98086        0.02635       -0.78600
C          1.09865        0.71324        0.11301
C         -0.11126        1.33341       -0.51622
N         -1.37835        0.59821       -0.36345
H         -0.86059        0.07616        1.71177
H         -2.61639       -0.08495        1.27052
H         -2.04913       -1.41218       -0.79434
H          0.26212       -1.66975       -1.58227
H          0.03271       -2.54439       -0.07407
H          1.70584       -1.28434        0.92762
H          1.51982        1.27829        0.93122
H          0.06921        1.46415       -1.59098
H         -0.24687        2.34113       -0.10891
