16

C          1.33450       -0.16025        0.09479
N          2.69549        0.07614       -0.33199
C          3.25985        1.39729       -0.10722
C          4.54644        1.56446       -0.84362
C          5.26583        0.50192       -1.20816
N          4.78853       -0.74910       -0.95086
C          3.51352       -1.02671       -0.52214
O          3.14408       -2.18923       -0.38294
H          0.76555        0.77355        0.10076
H          1.33787       -0.60280        1.09529
H          0.85876       -0.86007       -0.60058
H          3.41925        1.53476        0.96895
H          2.53987        2.14284       -0.45858
H          4.90360        2.56801       -1.04026
H          6.23110        0.57504       -1.69599
H          5.34598       -1.56518       -1.17038
