19

C          1.25394        0.21501        0.06751
C          2.73991        0.03204        0.01021
C          3.46287       -1.13985        0.80905
C          4.62429       -0.68445       -0.17151
C          3.45755       -0.66384       -1.22586
C          4.92466        0.75297        0.16798
C          4.33349        1.95278       -0.52066
N          3.53725        1.23598        0.45262
H          0.73392       -0.71752       -0.17540
H          0.92150        0.97443       -0.64788
H          0.92676        0.52412        1.06590
H          3.06717       -2.15204        0.66535
H          3.63544       -0.97903        1.87827
H          5.45350       -1.37110       -0.33826
H          3.05774       -1.63944       -1.53024
H          3.60994       -0.07568       -2.13380
H          5.61245        0.85749        0.99617
H          4.03574        1.92002       -1.55912
H          4.68871        2.93003       -0.21077
