21

C          0.97509        0.12706        0.19362
C          2.41853        0.13751       -0.33998
C          2.81473       -1.30767       -0.70670
C          3.88152       -1.63944       -1.70736
C          4.53803       -0.87580       -2.59041
C          4.45013        0.59608       -2.84613
C          3.84947        1.48520       -1.76231
N          2.46896        1.14052       -1.41849
H          0.84868       -0.64447        0.96022
H          0.25701       -0.07826       -0.60947
H          0.71002        1.09064        0.64332
H          3.05616        0.47519        0.48832
H          1.91850       -1.85142       -1.03444
H          3.12071       -1.78862        0.23338
H          4.09966       -2.70811       -1.75008
H          5.21796       -1.39254       -3.26823
H          5.47303        0.95349       -3.02546
H          3.90833        0.74965       -3.78824
H          3.84509        2.51008       -2.15549
H          4.49601        1.51590       -0.87621
H          2.01073        1.98946       -1.08569
