13

C          0.93029       -0.07082       -0.01116
C          2.45029       -0.07082       -0.01116
C          3.75415       -0.07082       -0.01116
C          5.28773       -0.07791       -0.01607
C          6.48839       -0.07671       -0.01524
C          7.92743       -0.05529       -0.00040
N          8.55765       -1.04606       -0.68646
O          8.53322        0.81677        0.60345
H          0.55712       -1.05419        0.28815
H          0.55712        0.16165       -1.01243
H          0.55711        0.68007        0.69080
H          8.05583       -1.76590       -1.18491
H          9.56805       -1.04886       -0.68840
