19

C          1.03021        0.00864        0.05690
C          2.54823        0.03124        0.10510
N          3.09330       -1.02042        0.98430
C          3.90871       -0.20629        1.92688
C          4.60053        0.86429        1.01816
C          3.11484        1.26182        0.80578
O          2.79122        2.54165        0.26370
C          2.96534        0.97911        2.32378
H          0.67396       -0.90408       -0.43276
H          0.65145        0.86651       -0.50900
H          0.57485        0.05059        1.05153
H          2.95389       -0.06318       -0.90977
H          3.64036       -1.67931        0.43010
H          4.47852       -0.72703        2.69428
H          5.15136        0.48788        0.14995
H          5.22758        1.60099        1.53416
H          3.14804        2.53701       -0.64052
H          1.97623        0.70858        2.70359
H          3.39537        1.73138        2.99600
