17

C          0.92014        0.19676       -0.11365
C          2.15995       -0.06390        0.30831
C          2.98924        0.94990        1.03970
N          2.81357        2.22137        0.86603
O          3.86240        3.00988        1.37861
C          4.12496        2.75869        2.75237
C          4.61566        1.33735        2.94422
C          4.10872        0.37690        1.88560
H          0.37147       -0.54560       -0.68406
H          0.43572        1.15074        0.07574
H          2.63828       -1.00994        0.09836
H          3.22885        2.96407        3.34747
H          4.90146        3.45972        3.07469
H          4.35141        0.99005        3.94979
H          5.71172        1.32508        2.91843
H          3.76187       -0.54466        2.36776
H          4.92268        0.10099        1.20403
