15

C          1.09886        0.09366       -0.10084
C          2.61255        0.05276       -0.03960
C          3.07890       -1.17923        0.66609
O          2.90595       -2.33038        0.29670
O          3.71636       -0.80143        1.82452
N          3.77517        0.62281        1.89944
C          3.17350        1.09135        0.85752
C          3.09616        2.54861        0.54736
H          0.71296       -0.72630       -0.71624
H          0.74185        1.03600       -0.52887
H          0.65319       -0.00745        0.89640
H          3.08180        0.12661       -1.02495
H          3.51865        3.13497        1.36780
H          2.05671        2.84640        0.39456
H          3.66526        2.74959       -0.36446
