23

C          2.95504       -2.14767       -1.94036
C          2.79781       -0.80585       -2.56752
C          1.48782       -0.06485       -2.52721
C          2.64611        0.40904       -1.68440
C          3.39816        1.66127       -2.02684
C          4.59703        1.88659       -1.10062
C          5.62050        0.75291       -1.16503
N          6.75376        1.03709       -0.28979
H          2.62734       -2.92904       -2.63258
H          2.38002       -2.24253       -1.01479
H          4.01024       -2.32526       -1.70583
H          3.38066       -0.72378       -3.47912
H          0.64822       -0.52565       -2.01712
H          1.20450        0.52292       -3.39301
H          2.53118        0.27938       -0.61259
H          3.73714        1.64283       -3.07010
H          2.71788        2.51597       -1.93224
H          4.24200        2.00068       -0.06787
H          5.07667        2.83465       -1.37761
H          5.97734        0.61708       -2.19281
H          5.17120       -0.19048       -0.84051
H          7.23851        1.87100       -0.61641
H          7.42537        0.27270       -0.35038
