17

C          1.02181        0.00584        0.06666
C          2.54640       -0.00912        0.10174
O          2.94447       -0.21157        1.46997
N          4.35407       -0.14352        1.56158
C          4.97311       -1.23623        2.08325
O          6.15229       -1.26661        2.40660
C          3.07565       -1.12108       -0.76832
C          3.90166       -0.93666       -1.80800
H          0.63390        0.81887        0.68953
H          0.60726       -0.92377        0.47452
H          0.64392        0.13840       -0.95245
H          2.91447        0.97116       -0.22815
H          4.79212        0.76533        1.64360
H          4.30623       -2.11412        2.17340
H          2.77648       -2.13187       -0.50228
H          4.24401        0.05174       -2.09917
H          4.26968       -1.78232       -2.38085
