19

C          3.16866        1.11936        1.01363
C          2.61828        0.00020        0.13613
C          3.20409       -0.02043       -1.28979
C          2.67025        1.16394       -2.11171
C          2.99975        1.01488       -3.53859
N          3.22693        0.91105       -4.67090
O          4.63480        0.06977       -1.25233
C          5.27526       -1.12373       -0.81803
H          2.67472        1.10797        1.98998
H          3.00232        2.10334        0.56681
H          4.24274        0.99769        1.18553
H          1.52583        0.07604        0.08775
H          2.83629       -0.95259        0.63292
H          2.91180       -0.95794       -1.78288
H          3.09586        2.10663       -1.75245
H          1.58016        1.22921       -2.01175
H          6.35580       -0.95846       -0.84608
H          5.03073       -1.95707       -1.48308
H          4.99873       -1.36798        0.21096
