19

C          1.01601        0.08732       -0.09432
C          2.53287        0.04103       -0.02138
C          3.12479        1.14388        0.84170
N          4.47579        0.64626        1.08795
C          4.32508       -0.79111        1.37779
C          3.07355       -1.23625        0.62154
C          5.56363       -1.52229        0.90216
O          6.25294       -2.23154        1.63205
H          0.68035        1.02131       -0.55665
H          0.56457        0.02371        0.90161
H          0.63234       -0.74548       -0.69265
H          2.93787        0.12113       -1.03985
H          2.57963        1.26305        1.78586
H          3.14360        2.10699        0.32308
H          4.90244        1.12358        1.88234
H          4.20102       -0.95544        2.45433
H          2.34740       -1.65348        1.32986
H          3.27122       -1.99902       -0.13987
H          5.81620       -1.39887       -0.16571
