12

C          2.82645       -1.09137       -0.03055
C          2.32230        0.14506        0.06061
C          3.15863        1.32421       -0.21901
N          4.40183        1.35583       -0.58597
C          4.65164        2.69556       -0.69648
O          5.67204        3.27385       -1.01272
C          3.39309        3.41606       -0.34586
N          2.50003        2.53502       -0.05957
H          2.20794       -1.95813        0.17767
H          3.86085       -1.27007       -0.31197
H          1.29100        0.32072        0.34270
H          3.35104        4.51133       -0.36293
