18

C          1.29083       -1.78705       -0.71466
C          2.46425       -2.27061        0.11376
O          3.20536       -1.11410        0.52630
C          4.46325       -1.34289        0.93282
N          5.01679       -2.49536        1.14524
N          6.29152       -2.20431        1.52248
C          6.66294       -0.85124        1.11051
C          5.31869       -0.14449        1.14045
H          0.70448       -2.62812       -1.09387
H          1.64331       -1.19007       -1.56374
H          0.63903       -1.13878       -0.12065
H          3.08906       -2.93179       -0.49723
H          2.10951       -2.80980        0.99792
H          6.95926       -2.91429        1.21628
H          7.06121       -0.86990        0.08741
H          7.39974       -0.39168        1.77292
H          5.20328        0.58022        0.33333
H          5.09507        0.30036        2.11517
