19

N          2.77959       -0.89667        1.39821
C          2.47525       -0.12475        0.18984
C          2.93604       -0.84648       -1.08031
O          4.36449       -0.94525       -1.07324
C          4.88802       -1.54858       -2.27542
C          6.36689       -1.81998       -2.24036
C          5.39785       -2.96038       -2.15526
O          5.28560       -3.78609       -3.32645
H          2.64005       -0.30835        2.21792
H          3.77562       -1.12762        1.37807
H          2.98216        0.84394        0.26250
H          1.39672        0.05393        0.14464
H          2.62466       -0.26561       -1.95647
H          2.49611       -1.84830       -1.14515
H          4.47276       -1.23513       -3.22673
H          6.90916       -1.55466       -1.33841
H          6.93174       -1.67559       -3.15113
H          5.28826       -3.45291       -1.19396
H          5.47690       -3.30083       -4.14638
