12

C          1.05177       -0.19020        0.13262
C          2.37030       -0.12006       -0.07424
O          3.17105       -1.19465       -0.41908
C          4.46008       -0.72614       -0.64591
C          4.70450        0.58098       -0.48704
S          3.24815        1.38454        0.01679
O          2.81553        2.29390       -1.02568
O          3.38914        1.81218        1.39329
H          0.52887       -1.13613        0.04898
H          0.47087        0.69432        0.37490
H          5.15228       -1.49519       -0.94896
H          5.63070        1.10674       -0.63510
