15

O          0.92979        0.27915        0.12039
N          2.36971        0.24735        0.16540
C          2.98847        1.22936        1.08072
C          4.40445        0.70705        1.29315
C          4.27947       -0.77942        1.59486
S          2.85609       -1.35294        0.67378
O          1.89350       -1.87886        1.61522
O          3.28319       -2.08322       -0.49760
H          0.71648        0.50260       -0.80484
H          2.42710        1.28311        2.01810
H          3.00029        2.21598        0.60925
H          4.92130        1.24211        2.09512
H          4.98647        0.84306        0.37339
H          4.07808       -0.94584        2.65624
H          5.16660       -1.33821        1.28934
