18

C          1.21307       -0.07742        0.03597
O          2.61482        0.15993       -0.14963
C          3.03091        1.18138       -0.94110
N          2.21765        1.96522       -1.54853
N          4.39482        1.21742       -0.96874
C          5.30375        2.04172       -1.60790
C          4.84674        3.17958       -2.48935
C          6.63303        1.87118       -1.47500
H          1.09500       -0.93739        0.70110
H          0.73849       -0.31377       -0.92142
H          0.74081        0.79056        0.50663
H          1.24691        1.73381       -1.36941
H          4.81490        0.49009       -0.40499
H          3.76764        3.28907       -2.57332
H          5.22514        3.04131       -3.50848
H          5.22646        4.13184       -2.10250
H          7.05952        1.08328       -0.86466
H          7.33150        2.52788       -1.98418
