21

C          0.83974       -0.18419       -0.04570
O          2.25688       -0.09386        0.02660
C          2.79495       -1.01100        0.98037
C          4.33380       -0.93764        0.99117
C          4.81212        0.49667        1.32026
N          6.27343        0.63211        1.29634
C          4.87208       -1.95066        1.98761
C          5.69143       -2.95939        1.66538
H          0.47984        0.58447       -0.73466
H          0.39065       -0.01043        0.93717
H          0.54099       -1.16481       -0.42845
H          2.47416       -2.02748        0.71898
H          2.39468       -0.76756        1.97288
H          4.68961       -1.17891       -0.01978
H          4.44768        0.79365        2.31106
H          4.39989        1.20743        0.59598
H          6.69066       -0.08000        1.89471
H          6.53363        1.53396        1.69085
H          4.56948       -1.83048        3.02656
H          6.03011       -3.11226        0.64449
H          6.05021       -3.65064        2.42170
