14

O          1.10933        0.15931        0.15084
C          2.51586        0.09505       -0.01721
C          2.91355       -0.98672       -1.00089
O          2.10811       -1.79728       -1.45915
C          3.04430        1.43001       -0.47459
N          4.22780        1.81427       -0.11509
N          4.54250        3.04247       -0.68055
C          5.69923        3.44695       -0.27505
H          0.75442       -0.69991       -0.15778
H          2.96807       -0.16206        0.94593
H          3.99008       -1.05060       -1.24271
H          2.41492        2.01701       -1.16798
H          6.09860        4.41058       -0.62485
H          6.32987        2.86680        0.42127
