15

O          1.33027       -0.07829       -0.81011
C          2.38366       -0.20982       -0.20407
N          2.78105       -1.38553        0.38438
C          3.94570       -1.27310        1.23518
C          4.59857        0.04584        0.81218
O          4.61768        1.03770        1.86793
C          3.45240        1.69031        1.30143
C          3.50706        0.81093        0.05628
H          2.14126       -2.17025        0.40208
H          4.59675       -2.13683        1.07867
H          3.59921       -1.25057        2.27367
H          5.55741       -0.04033        0.29333
H          3.62963        2.75562        1.12796
H          2.57953        1.55903        1.94760
H          3.85762        1.32129       -0.84456
