17

C          2.25100       -1.66458        0.31585
O          2.19645       -0.24763        0.21610
C          2.96570        0.39108        1.23098
C          3.05626        1.86065        0.89001
C          2.49147        2.59449        1.86619
C          1.96038        1.79216        2.97400
N          0.87302        0.85729        2.73431
C          2.24084        0.35586        2.57157
H          1.64016       -2.08923       -0.48525
H          1.84765       -2.00559        1.27381
H          3.27934       -2.01847        0.19403
H          3.97304       -0.03614        1.30128
H          3.49018        2.24421       -0.02102
H          2.41458        3.67395        1.85018
H          2.17065        2.09413        3.99153
H          0.45938        1.00662        1.80939
H          2.61815       -0.34616        3.29800
