19

N          1.14676       -0.01028        0.01134
C          2.50371       -0.08745       -0.11648
O          3.01153       -0.55058       -1.12968
C          3.26931        0.44258        1.07419
C          4.77727        0.29900        0.88940
C          5.53450        0.83045        2.07360
C          7.04076        0.83699        2.03910
C          6.28470        2.13451        1.98326
H          0.58282       -0.35631       -0.75392
H          0.68744        0.35129        0.83519
H          2.94711       -0.11099        1.96458
H          3.00511        1.49659        1.21997
H          5.09038        0.81145       -0.02897
H          5.02940       -0.76076        0.75705
H          5.07752        0.56170        3.01982
H          7.53982        0.49764        1.13808
H          7.56846        0.59320        2.95445
H          6.28851        2.67657        1.04404
H          6.30958        2.77176        2.86009
