20

C          0.88429        0.05110       -0.04688
C          2.39940        0.04711       -0.04248
C          3.08162        1.10158        0.86668
C          4.16457        0.04500        1.16403
C          3.10588       -1.03939        0.83096
C          3.63583       -2.27242        0.11359
C          2.49903       -3.24064       -0.17034
C          1.52388       -4.07119       -0.41391
H          0.50457        0.94101       -0.55905
H          0.47662        0.04517        0.96930
H          0.49644       -0.82718       -0.57194
H          2.78811        0.08302       -1.07075
H          2.49743        1.38889        1.74874
H          3.43180        2.00629        0.36331
H          4.54424        0.03566        2.18958
H          5.01331        0.08139        0.47138
H          2.52886       -1.31129        1.72836
H          4.37309       -2.78426        0.74257
H          4.12984       -2.00746       -0.82777
H          0.72646       -4.74945       -0.61292
