16

N          1.09261        0.00341       -0.01407
C          2.55716        0.15891        0.07527
C          2.94362        1.48982        0.73398
C          4.39655        1.53667        1.10461
C          5.08312        0.41792        1.35687
N          4.48307       -0.80694        1.28019
C          3.20830       -1.03585        0.80748
O          2.70103       -2.15026        0.91694
H          0.66181        0.87330       -0.31641
H          0.72162       -0.21760        0.90981
H          2.95340        0.13851       -0.94859
H          2.35501        1.66373        1.64400
H          2.71950        2.31305        0.04475
H          4.87038        2.50703        1.21700
H          6.11796        0.43363        1.68733
H          4.96081       -1.62743        1.63622
