17

C          0.99318       -0.05657        0.46242
C          2.32498       -0.05511        0.33216
C          3.16990        1.04100       -0.22040
N          4.09012        0.35952       -1.14684
C          4.04807       -1.08473       -0.83285
C          3.22978       -1.23812        0.45566
C          3.39231       -1.83069       -1.92611
C          2.77538       -2.47464       -2.72938
H          0.40499        0.82452        0.22585
H          0.45666       -0.95779        0.74164
H          3.74256        1.50199        0.59468
H          2.60018        1.82233       -0.73042
H          5.03009        0.71391       -1.00240
H          5.06501       -1.46985       -0.69166
H          2.69623       -2.19110        0.52670
H          3.86924       -1.11824        1.33874
H          2.17910       -3.05890       -3.39288
