10

O          2.89935        1.00629        0.29538
N          2.30429       -0.06283        0.09535
O          1.15858       -0.17763       -0.35743
C          3.01866       -1.26391        0.42197
C          4.28859       -1.35721        0.93369
O          4.56974       -2.68400        1.09069
C          3.43926       -3.31502        0.65903
N          2.47558       -2.52117        0.24662
H          5.05893       -0.65545        1.21866
H          3.44527       -4.39622        0.69744
