12

C          0.06135        0.94482       -0.05034
O         -0.77824       -0.18149        0.15448
C          0.64178       -0.45060        0.11227
C          1.43701       -0.78348        1.36775
N          2.53208       -1.54653        1.30494
S          3.06019       -1.66077        2.89263
N          1.89508       -0.72886        3.66007
C          1.08046       -0.33780        2.67690
H          0.14561        1.66408        0.75409
H          0.07890        1.38781       -1.03868
H          1.02236       -0.92174       -0.78855
H          0.22829        0.27285        2.94119
