14

O          0.90513        0.15425       -0.41795
N          2.11835       -0.19606        0.17286
C          3.10520        0.23065       -0.54681
C          4.48661       -0.03623       -0.09669
C          5.64747        0.30329       -0.66930
C          5.89425        1.04608       -1.92204
N          7.11736        1.26535       -2.29186
O          7.13007        1.97898       -3.49542
H          0.25540       -0.21818        0.21017
H          2.96236        0.78890       -1.48831
H          4.52719       -0.58968        0.83671
H          6.56640        0.00664       -0.16901
H          5.02366        1.39120       -2.50411
H          8.08899        2.07851       -3.66327
