12

N          0.89789        0.11711       -0.05191
C          2.24647        0.09922       -0.06890
C          3.13038        1.16192       -0.07718
C          4.49529        0.73808       -0.09099
C          4.60964       -0.63354       -0.09401
S          3.08285       -1.39955       -0.08079
C          2.72053        2.53408       -0.07148
N          2.39075        3.64726       -0.06941
H          0.34527        0.96889       -0.09469
H          0.36536       -0.74715       -0.09269
H          5.34978        1.40485       -0.09783
H          5.51547       -1.22485       -0.10312
