14

O          1.15962       -0.18689        0.49043
C          2.32210       -0.09643        0.13489
C          3.12483        1.16093        0.01969
C          4.26194        0.72296       -0.90171
N          4.40171       -0.73217       -0.69241
N          3.16654       -1.14549       -0.16739
C          3.94685        0.99368       -2.31693
C          3.67684        1.21084       -3.46712
H          3.49246        1.42084        1.01808
H          2.51701        1.97304       -0.38859
H          5.19219        1.23931       -0.63929
H          5.10920       -0.88455        0.03115
H          2.78935       -2.07894       -0.30474
H          3.42610        1.39259       -4.48683
