15

C          0.85749       -0.18334       -0.03390
C          2.37551       -0.08011       -0.01389
O          2.87611       -0.08688       -1.34726
C          2.88092        1.15460        0.66320
C          3.65901        1.25188        1.80210
N          3.97228        2.53207        2.21546
C          3.44486        3.39693        1.37881
S          2.55001        2.73760        0.07420
H          0.54912       -1.10857       -0.53295
H          0.40103        0.63660       -0.59966
H          0.44207       -0.17736        0.97881
H          2.78284       -0.96654        0.48565
H          2.59074        0.74419       -1.76364
H          4.02824        0.41102        2.37804
H          3.56453        4.46557        1.50132
