18

C          1.13870        0.10044       -0.43823
O          2.56274        0.03482       -0.36184
C          3.06068       -1.19753       -0.62188
O          2.39627       -2.19723       -0.84962
N          4.41920       -1.13323       -0.65465
C          5.22696       -2.22741       -1.15543
C          5.03653       -2.45906       -2.66466
N          5.32188       -1.24796       -3.44364
H          0.83889        1.14182       -0.29127
H          0.68379       -0.50908        0.34863
H          0.79173       -0.21917       -1.42623
H          4.83019       -0.21464       -0.55318
H          4.95596       -3.13623       -0.60683
H          6.27145       -1.98869       -0.93222
H          4.00802       -2.77250       -2.87290
H          5.69801       -3.26600       -2.99708
H          4.68903       -0.51120       -3.12981
H          5.07893       -1.42306       -4.41861
