16

N          1.06636        0.09727       -0.05656
C          2.53804        0.06622       -0.01436
C          3.29730       -0.68629       -1.07814
O          2.49624       -1.31441       -2.09907
C          3.32580        0.82207       -1.06081
N          4.51450        1.53112       -0.71284
C          5.47479        1.89184       -1.61314
O          6.47631        2.52562       -1.30883
H          0.68565       -0.26364        0.81988
H          0.73480       -0.56650       -0.75980
H          2.95738        0.05035        0.98924
H          4.18728       -1.21803       -0.75605
H          1.99361       -0.66210       -2.61747
H          2.73841        1.34947       -1.80869
H          4.65965        1.85326        0.23702
H          5.26502        1.55906       -2.64360
