14

N          0.47459       -0.32137       -0.04894
C          1.76852        0.09285       -0.23441
C          2.92945       -0.33657        0.29402
C          2.99796       -1.45033        1.28684
N          1.97109       -2.02810        1.83055
O          2.41168       -3.03638        2.69807
C          4.10675        0.29865       -0.17283
C          4.97020        0.94183       -0.71103
H          0.36163       -0.89074        0.79260
H         -0.21373        0.42323       -0.13360
H          1.80600        0.90770       -0.96014
H          4.02353       -1.77187        1.55176
H          1.57537       -3.44341        2.99296
H          5.62552        1.56787       -1.27232
