16

N          1.25101       -0.00860       -0.79215
C          2.40008       -0.01563       -0.18919
C          2.93156       -1.30638        0.55010
O          3.91525       -1.07020        1.57963
C          4.80396       -0.03901        1.11449
C          5.22758        1.23481        1.70664
C          3.87879        1.23066        1.11415
N          3.17753        1.13708       -0.16340
H          0.78939       -0.91676       -0.69322
H          3.38280       -1.95465       -0.21181
H          2.08739       -1.83812        0.99727
H          5.37834       -0.28926        0.22181
H          5.99824        1.80523        1.20082
H          5.30874        1.28277        2.78727
H          3.13291        1.36375        1.90265
H          2.64790        1.93961       -0.49338
