18

C          2.22022        0.82654       -0.31999
O          2.43227       -0.53298        0.07493
N          2.90195       -0.49637        1.40166
C          2.01752       -1.25331        2.28475
C          4.26877       -0.72442        1.46260
N          4.95893       -1.22915        0.47931
C          5.03224       -0.36149        2.73776
O          6.37042       -0.01297        2.40942
H          2.35935        0.89220       -1.40247
H          2.92365        1.51592        0.15757
H          1.19351        1.11453       -0.07530
H          0.97729       -0.95886        2.11689
H          2.25989       -1.04968        3.33263
H          2.11544       -2.32407        2.09700
H          4.26747       -1.40556       -0.26433
H          5.04464       -1.22432        3.40989
H          4.55573        0.48751        3.23515
H          6.54748       -0.51241        1.58121
