19

N          0.83653       -0.43090        0.96512
C          1.95259        0.39448        0.48887
C          3.11092        0.39380        1.49418
O          4.05029        0.07883        0.42296
C          2.93136       -0.43790       -0.37873
C          2.97890       -0.18033       -1.86902
C          3.13345        1.18520       -2.48300
C          4.23640        0.17494       -2.61655
H          0.23383        0.05486        1.62858
H          0.22055       -0.74357        0.21432
H          1.67713        1.37527        0.09294
H          3.33156        1.36260        1.95113
H          3.11976       -0.38867        2.26088
H          2.87151       -1.52542       -0.21726
H          2.28306       -0.85918       -2.35370
H          3.30674        2.03166       -1.82746
H          2.54206        1.41414       -3.36211
H          5.14391        0.34302       -2.04681
H          4.39938       -0.27803       -3.58694
