13

C          1.44204       -0.20395       -0.67495
O          2.55329        0.05294        0.17780
C          3.09790       -1.04083        0.76667
C          2.83297       -2.34627        0.69069
C          3.78904       -3.03643        1.57277
O          3.81009       -4.24605        1.71733
N          4.60491       -2.10473        2.16412
C          4.21174       -0.96504        1.70449
H          1.14272        0.74271       -1.13438
H          0.59377       -0.58715       -0.09789
H          1.70965       -0.89948       -1.47755
H          2.09278       -2.87069        0.11659
H          4.64379        0.01144        1.96584
