15

O          0.84741        0.00193        0.00450
C          2.26911        0.04695       -0.01663
C          2.81885       -0.72939        1.17686
C          4.31250       -0.72629        1.22171
C          5.10081        0.20834        1.86997
S          6.74987       -0.18697        1.64068
N          6.47257       -1.53959        0.72370
C          5.15886       -1.69822        0.59639
H          0.53445        0.50507       -0.76753
H          2.58372        1.09553        0.01970
H          2.61635       -0.38724       -0.96034
H          2.44726       -1.76163        1.14307
H          2.41337       -0.30737        2.10547
H          4.80295        1.07308        2.44590
H          4.82262       -2.55328        0.02260
