19

C          0.92209       -0.01677        0.00316
C          2.41068       -0.06032       -0.08520
C          3.13218       -0.87595       -1.13683
C          2.37015       -1.58371       -2.18205
N          2.06093       -2.82033       -1.95976
N          1.31310       -3.38580       -2.93428
N          3.06120        0.59161       -1.21887
C          4.29794        1.26772       -0.83456
H          0.57066       -0.74191        0.74427
H          0.42904       -0.24137       -0.94885
H          0.59461        0.97781        0.32059
H          2.87141        0.02915        0.89294
H          4.07779       -1.33165       -0.86363
H          2.08148       -1.03062       -3.09577
H          1.25444       -4.39581       -2.78822
H          1.69371       -3.24048       -3.87018
H          4.79374        1.65092       -1.73210
H          5.01655        0.63122       -0.30468
H          4.07157        2.12650       -0.19301
