19

C          1.10003       -0.11135        0.09988
C          2.60798        0.14983        0.01636
C          2.96765        1.51674        0.61947
C          2.67194        2.68601       -0.31468
N          3.68990        2.88934       -1.34506
C          4.32030        1.89181       -1.84179
N          4.27273        0.52063       -1.63734
N          2.98835       -0.01611       -1.39663
H          0.74190       -0.01189        1.12978
H          0.85894       -1.12663       -0.23563
H          0.52980        0.58760       -0.52270
H          3.11461       -0.62042        0.61216
H          4.02690        1.53102        0.90409
H          2.40332        1.65482        1.55263
H          2.65945        3.59815        0.29454
H          1.68020        2.61142       -0.77196
H          5.09748        2.12875       -2.59130
H          4.82837        0.00749       -2.32385
H          2.95890       -1.01406       -1.61784
