17

N          1.01645       -0.23341       -0.23912
C          2.45131       -0.02242       -0.14034
C          3.20463       -1.26561       -0.54491
C          4.17242       -0.99057       -1.43603
C          4.21027        0.47799       -1.76635
C          2.96529        1.01187       -1.11351
C          2.13610        2.11668       -1.72610
O          3.03859        2.36399       -0.64059
H          0.73777       -0.92492        0.45265
H          0.79882       -0.62193       -1.15157
H          2.72116        0.24766        0.88710
H          2.99249       -2.25217       -0.15816
H          4.84390       -1.71667       -1.87176
H          4.20160        0.63868       -2.84754
H          5.11224        0.93017       -1.33902
H          1.07251        2.14427       -1.52054
H          2.40981        2.47597       -2.70974
