16

O          0.89616       -0.43540        0.21516
C          2.30814       -0.17542        0.26200
C          2.69642        1.25831        0.13013
C          2.27935        2.48562       -0.59539
N          3.36510        2.88937       -1.53566
C          4.20439        1.97372       -1.89768
N          4.23194        0.63366       -1.53639
C          2.93437        0.23921       -1.00609
H          0.43979       -0.01743        0.96647
H          2.90139       -0.79873        0.92244
H          3.51688        1.52313        0.79760
H          2.13010        3.29906        0.12168
H          1.34151        2.35323       -1.14678
H          5.02581        2.23045       -2.58638
H          4.71928        0.01255       -2.17370
H          2.22568        0.16297       -1.83372
