10

O         -2.13023       -0.01365       -0.00116
C         -1.27404       -1.10762       -0.00315
C          0.01073       -0.68863       -0.00288
O          1.27269       -1.13018       -0.00397
N          2.11590        0.01633       -0.00242
C          1.27982        1.08116       -0.00048
C         -0.04436        0.64700       -0.00075
N         -1.25070        1.20458        0.00050
H         -1.72015       -2.08707       -0.00456
H          1.68639        2.08087        0.00097
