20

N          1.00020       -0.18912        0.04132
C          2.43817       -0.00491       -0.11156
C          2.83779        1.20641       -0.93406
C          1.94652        2.04832       -1.49617
C          4.35109        1.40719       -1.03498
N          4.86083        0.67698       -2.20022
C          4.82528        2.88401       -1.07090
O          4.48757        3.57619        0.13218
H          0.83171       -0.99874        0.63623
H          0.60055       -0.42268       -0.86603
H          2.85673       -0.90852       -0.56954
H          2.87410        0.08889        0.88961
H          0.87523        1.90408       -1.38504
H          2.24250        2.90972       -2.08438
H          4.80570        0.97145       -0.13572
H          4.42307        1.04660       -3.04272
H          4.58835       -0.30112       -2.13949
H          4.41313        3.43726       -1.92141
H          5.91668        2.92249       -1.16242
H          3.53096        3.45895        0.27229
