18

C          1.10186       -0.10753       -0.13023
C          2.62049       -0.01440        0.02020
C          3.02736        0.09524        1.49156
N          3.23103       -1.29381       -0.52239
C          4.09785       -0.87086       -1.39680
N          4.19233        0.46459       -1.58360
C          3.24831        1.09870       -0.83481
C          2.89667        2.38550       -0.88381
H          0.70989       -0.98856        0.39062
H          0.80898       -0.19617       -1.18265
H          0.60335        0.77522        0.28553
H          2.65700       -0.76175        2.06479
H          2.62769        1.00577        1.94998
H          4.11845        0.11015        1.60485
H          4.74991       -1.51194       -2.00902
H          4.67146        0.91476       -2.34700
H          3.39044        3.08319       -1.55130
H          2.09704        2.77358       -0.26087
