12

O          1.07454        0.08938        0.14958
S          2.47320       -0.02951       -0.18517
O          3.01517        0.11383       -1.51279
N          3.30437        1.03856        0.84263
C          4.27666       -0.03127        1.23085
C          3.32266       -1.17270        0.84610
C          3.89127       -2.25412        0.10346
N          4.36777       -3.16523       -0.43447
H          2.67435        1.39493        1.56698
H          4.54129        0.01356        2.29160
H          5.19774        0.04213        0.63978
H          2.68983       -1.49999        1.67959
