13

N          1.09657       -0.14564       -0.00234
C          2.42112        0.02530       -0.03113
C          3.25367        1.12525       -0.04583
C          2.83931        2.50685       -0.03848
O          3.62633        3.44884       -0.05074
C          4.58004        0.60620       -0.06474
C          4.46051       -0.76222       -0.06417
O          3.15104       -1.11972       -0.04553
H          0.41944        0.59949       -0.10404
H          0.72163       -1.08654       -0.08018
H          1.75223        2.68490       -0.02226
H          5.50136        1.17273       -0.07429
H          5.16900       -1.57870       -0.07313
