19

C          1.07190        0.11571       -0.03444
C          2.58737        0.05105        0.07370
C          3.16687        1.25298        0.80972
C          4.46301        0.66165        1.25791
C          4.37158       -0.84522        1.33075
N          3.01744       -1.14801        0.82613
N          5.48272        1.41561        1.53464
N          6.60849        0.77193        1.92339
H          0.76098        1.02445       -0.56018
H          0.59761        0.12094        0.95320
H          0.68414       -0.74508       -0.58963
H          3.01717       -0.00344       -0.93731
H          2.58278        1.53371        1.69283
H          3.31907        2.11769        0.16089
H          4.48554       -1.18597        2.36385
H          5.13036       -1.30581        0.69357
H          2.39886       -1.27339        1.62790
H          7.36006        1.45768        2.04063
H          6.94474        0.11980        1.21201
