13

O          1.14726       -0.19539       -0.21041
C          2.36480       -0.15537       -0.16536
C          3.17233       -0.92005       -1.16646
N          4.46120       -0.86169       -1.11327
N          5.09938       -1.52218       -2.10119
C          6.55499       -1.64116       -2.07043
C          7.06165       -2.52950       -3.19495
N          7.48197       -3.26645       -4.12783
H          2.95755        0.42243        0.55704
H          2.58264       -1.48596       -1.91129
H          4.60859       -2.24195       -2.63016
H          6.90352       -2.04831       -1.11524
H          6.99014       -0.64396       -2.19934
