18

C          1.06193       -0.01874       -0.07174
C          2.56178        0.02169       -0.04885
C          3.23458        1.18421       -0.04952
C          4.71424        1.15015        0.04338
N          5.42145        2.23292       -0.03753
N          5.38007       -0.02502        0.22148
C          4.79429       -1.30510       -0.10658
C          3.25889       -1.32009        0.00186
H          0.62265        0.98464       -0.06991
H          0.68405       -0.54607        0.81085
H          0.70829       -0.53910       -0.96704
H          2.74515        2.14839       -0.08512
H          4.81393        3.04820       -0.16362
H          6.37832        0.07007        0.07862
H          5.20931       -2.06491        0.56680
H          5.09499       -1.58787       -1.12064
H          2.97683       -1.81689        0.93882
H          2.87389       -1.95237       -0.80825
