16

O          1.22978       -0.24695        0.77327
C          2.28615       -0.05173       -0.15561
C          2.82359       -1.36900       -0.68103
N          3.83314       -1.41524       -1.52388
C          4.18515       -2.81277       -1.70592
C          3.22837       -3.81841       -2.27562
C          3.22574       -3.58077       -0.79897
N          2.32856       -2.57850       -0.22993
H          0.54442        0.40756        0.55292
H          3.09495        0.48510        0.34790
H          1.93496        0.54607       -1.00206
H          5.23839       -3.05018       -1.77950
H          3.63944       -4.75628       -2.63054
H          2.39511       -3.45470       -2.86338
H          3.64757       -4.30110       -0.11336
H          1.95385       -2.58064        0.71297
