13

O          2.17774       -0.93469       -0.32615
C          3.03968       -0.32738        0.28233
C          3.03197        0.80411        1.25901
N          4.39079        0.76356        0.99997
C          5.35348        1.64827        0.72465
C          6.40757        0.80529        0.49934
C          5.82968       -0.50787        0.42562
C          4.44799       -0.47414        0.34038
H          2.74563        0.42813        2.24999
H          2.55841        1.75782        1.05348
H          5.24641        2.71819        0.82381
H          7.45065        1.07870        0.40213
H          6.42400       -1.40232        0.27961
