15

O          0.96666        0.01967       -0.33079
C          2.37966       -0.01912       -0.20991
C          2.90406       -1.23927        0.52857
O          3.05749       -0.82754        1.89231
N          3.27303        0.57163        1.90156
C          2.88864        1.02068        0.74885
C          2.95497        2.46063        0.40739
C          2.51045        2.97293       -0.74560
H          0.61679       -0.88499       -0.28180
H          2.82030        0.06106       -1.20358
H          3.89172       -1.53740        0.16017
H          2.22713       -2.09688        0.49428
H          3.38813        3.09854        1.17141
H          2.04993        2.37144       -1.52064
H          2.57779        4.04195       -0.92900
