19

N          0.97359       -0.04462       -0.09217
C          2.42805        0.04835        0.05627
C          2.92925        1.16323        0.96494
O          4.22827        0.75394        1.40546
C          4.27468       -0.67924        1.40037
C          3.01929       -1.19281        0.71339
C          3.31069       -2.31794       -0.27340
O          2.10513       -2.86312       -0.80930
H          0.63270        0.81223       -0.54265
H          0.53140       -0.06185        0.82955
H          2.86943        0.18326       -0.93848
H          2.30019        1.29086        1.85350
H          3.00070        2.12465        0.44810
H          4.31280       -1.02258        2.43996
H          5.19913       -0.99423        0.90674
H          2.32794       -1.57224        1.47869
H          3.84351       -3.13718        0.22034
H          3.93540       -1.97207       -1.10478
H          1.43300       -2.14923       -0.79245
