15

C          1.20475        0.43936        0.01619
C          2.66433        0.15049        0.00789
N          3.60678        1.06992        0.00882
C          4.83048        0.45678       -0.00101
O          5.95917        1.17590       -0.00230
C          4.83632       -0.91920       -0.00954
C          5.97241       -1.87416       -0.02150
S          3.21486       -1.47969       -0.00394
H          1.02850        1.51979        0.01868
H          0.72993        0.01842        0.90812
H          0.72027        0.02113       -0.87182
H          5.67505        2.10614        0.00473
H          6.93393       -1.35113       -0.03307
H          5.93126       -2.51433       -0.90899
H          5.95115       -2.51239        0.86805
