17

O          2.91592       -1.90824       -1.02471
C          2.46750       -0.84234       -1.86342
C          3.02792        0.48510       -1.35579
N          4.47405        0.54910       -1.46605
C          5.08576        0.94593       -2.62510
O          4.48501        1.31171       -3.62714
C          6.56864        0.89268       -2.54999
C          7.31399        1.29964       -3.58509
H          2.55796       -2.72861       -1.40655
H          1.37347       -0.82291       -1.82746
H          2.78786       -1.04697       -2.88957
H          2.79203        0.61624       -0.29451
H          2.58921        1.31447       -1.92035
H          5.00944        0.10612       -0.73184
H          7.03066        0.53576       -1.63927
H          6.85974        1.66790       -4.50049
H          8.39760        1.27824       -3.53548
