14

N          1.14218       -0.16903       -0.01650
C          2.46525       -0.00517        0.02188
C          3.26772        1.11377        0.04882
C          4.58935        0.62676        0.06543
O          5.73787        1.32685        0.08401
C          4.51882       -0.74782        0.04111
N          5.44385       -1.70934        0.03069
O          3.21752       -1.13841        0.02475
H          0.49146        0.59723        0.10734
H          0.75379       -1.10178        0.07899
H          2.92852        2.13822        0.05349
H          5.54370        2.27777        0.07727
H          6.42843       -1.48461        0.11329
H          5.18127       -2.68453        0.09331
