13

C          1.36412       -0.36240       -0.64582
C          2.31747        0.03253        0.20719
C          3.03957       -0.83651        1.09907
C          3.97399       -0.46535        1.96945
C          4.34244       -1.71096        2.62900
O          5.08236       -1.79721        3.59116
N          3.68811       -2.72704        1.98635
O          2.75669       -2.19588        1.06418
H          0.86560        0.35562       -1.28940
H          1.05435       -1.39990       -0.72827
H          2.57787        1.08888        0.23877
H          4.36823        0.50346        2.20766
H          3.52425       -3.63052        2.40529
