14

N          1.26364       -0.13761        0.51674
C          2.43424       -0.00735        0.02907
N          3.10268        1.14681       -0.21773
C          4.38185        0.84105       -0.83070
C          4.50582       -0.65239       -0.60087
O          3.17180       -1.09700       -0.30318
C          4.31016        1.11672       -2.31735
O          5.28641        1.46559       -2.97817
H          0.86283        0.79132        0.66001
H          3.12754        1.78060        0.57324
H          5.20782        1.41052       -0.39482
H          5.13563       -0.87770        0.26788
H          4.88710       -1.20599       -1.46583
H          3.34480        0.90669       -2.80499
