15

C          0.87227       -0.05929       -0.08313
C          2.38538       -0.02946       -0.06279
C          3.01593        1.05315        0.84488
N          4.18563        0.18388        1.22883
O          5.26385        0.21727        0.26459
S          3.23360       -1.23761        0.92242
O          2.50606       -1.57965        2.12294
O          3.98212       -2.19222        0.14008
H          0.48078        0.79522       -0.64455
H          0.44729       -0.02028        0.92488
H          0.50916       -0.97198       -0.56902
H          2.78880       -0.02183       -1.08247
H          2.42917        1.32789        1.72940
H          3.32001        1.97044        0.33236
H          6.05945       -0.00893        0.78365
