15

O          1.37700       -0.06289       -0.63365
C          2.45298       -0.10527       -0.05163
O          2.91229       -1.25571        0.51699
C          3.98752       -1.17741        1.45716
C          5.09482       -0.23984        0.99714
N          4.67006        1.08210        0.54352
C          3.65588        1.75316        1.34283
C          3.30097        1.11642        0.01675
H          4.39353       -2.18869        1.56893
H          3.57715       -0.89285        2.43153
H          5.61384       -0.71060        0.15323
H          5.83546       -0.13022        1.79735
H          3.71913        2.83568        1.37346
H          3.31077        1.30710        2.26583
H          3.16798        1.78392       -0.82842
