21

C          1.99205       -1.00648        0.47113
C          2.83850        0.25493        0.35773
C          2.79601        1.05806        1.63750
C          3.44877        0.45419        2.85318
C          4.05200        1.66977        2.22019
C          3.69532        3.02206        2.75806
C          2.38423        3.36236        2.04279
N          1.71359        2.06641        1.78924
H          2.06402       -1.60002       -0.44513
H          0.93847       -0.76162        0.64183
H          2.32492       -1.63626        1.30379
H          2.47665        0.86126       -0.48095
H          3.86993       -0.02799        0.11659
H          3.99177       -0.47794        2.74717
H          2.93228        0.54736        3.80159
H          4.97841        1.61760        1.66842
H          4.47095        3.76689        2.55772
H          3.53839        2.96876        3.84226
H          2.61112        3.84151        1.08269
H          1.75572        4.03802        2.62707
H          1.14376        2.14799        0.94962
