18

C          0.92623       -0.17824       -0.04141
C          2.42859        0.01862        0.01060
N          3.11370       -1.24153       -0.43152
C          3.96408       -0.86500       -1.33757
N          3.99788        0.43110       -1.74992
C          2.98644        1.08330       -0.93052
C          2.14693        2.18145       -1.54320
C          3.11597        2.50440       -0.44713
H          0.62688       -1.04055        0.56406
H          0.57562       -0.35056       -1.06415
H          0.40778        0.70272        0.35237
H          2.74555        0.22023        1.04069
H          4.68108       -1.54120       -1.82583
H          4.91502        0.83629       -1.89572
H          1.08783        2.22652       -1.32729
H          2.39420        2.50140       -2.55065
H          2.69913        2.76096        0.52037
H          4.00734        3.06232       -0.70439
