16

C          1.07052       -0.56378        0.37451
C          2.43230        0.05264        0.09303
C          2.89008        0.93794        1.21616
C          2.56909        2.29218        1.25465
C          3.01081        3.04168        2.32876
N          3.73284        2.51481        3.33795
N          4.04450        1.19216        3.31274
C          3.62787        0.43283        2.27689
H          0.76907       -1.21041       -0.45566
H          0.30334        0.20800        0.49909
H          1.08890       -1.16947        1.28695
H          2.39114        0.63019       -0.83856
H          3.16988       -0.74160       -0.07513
H          1.98701        2.75905        0.46767
H          2.79566        4.10038        2.41523
H          3.91373       -0.61176        2.33519
