17

C          1.29784        0.12816        0.02437
N          2.73617        0.07770        0.02327
C          3.63356        1.11585        0.02108
C          3.31809        2.56272        0.02073
N          4.85223        0.61479        0.01961
N          4.76010       -0.75239        0.02175
C          3.48576       -1.07500        0.02441
C          2.92696       -2.44542        0.02871
H          0.94001        1.15701        0.02216
H          0.93437       -0.37722        0.92309
H          0.93287       -0.38125       -0.87147
H          2.24920        2.78079        0.02466
H          3.75113        3.03574       -0.86653
H          3.75764        3.03739        0.90392
H          3.73138       -3.18765        0.02286
H          2.30574       -2.61476       -0.85599
H          2.31921       -2.61400        0.92287
