18

C          5.43337        1.57042       -0.65630
C          4.00160        1.36746       -0.27897
C          3.38838        0.18241       -0.11784
C          4.00098       -1.17349       -0.27448
C          3.86315       -2.09717        0.95899
N          3.51128       -3.45313        0.42600
C          3.16341       -3.20061       -0.79922
N          3.23011       -1.91882       -1.24578
H          5.65017        2.64198       -0.72108
H          5.64810        1.13022       -1.63459
H          6.10378        1.14264        0.09502
H          3.41722        2.27303       -0.12504
H          2.33413        0.18988        0.15616
H          5.04786       -1.13473       -0.59457
H          3.06806       -1.77532        1.64169
H          4.80297       -2.14530        1.51906
H          2.84294       -3.96025       -1.52855
H          3.44293       -1.76303       -2.22356
