18

C          1.29387       -0.55983       -0.77216
C          2.55336       -0.03700       -0.09927
C          2.97289        1.26885       -0.66868
C          2.66384        2.56618       -0.32540
N          3.28650        3.45542       -1.16092
C          3.97433        2.72471       -2.01211
C          4.81324        3.21500       -3.12953
N          3.82076        1.38814       -1.74109
H          0.99606       -1.51613       -0.33069
H          1.45299       -0.71551       -1.84478
H          0.46096        0.14222       -0.65548
H          3.35884       -0.77229       -0.20902
H          2.37034        0.07376        0.97628
H          2.02076        2.90709        0.47582
H          4.74239        4.30369       -3.21503
H          4.48644        2.77777       -4.07814
H          5.86295        2.95248       -2.96690
H          4.25108        0.63039       -2.25295
