23

C          0.98601        0.40154        0.50651
C          2.50445        0.38473        0.51646
C          3.05132       -0.92608        1.07913
C          4.57391       -0.92141        1.04845
C          5.31975        0.09194        1.94882
N          6.25424       -0.97655        2.36285
C          7.44900       -0.97296        1.51616
C          5.28684       -1.99721        1.90057
H          0.62071        1.35999        0.12282
H          0.58490        0.26569        1.51599
H          0.58879       -0.39394       -0.13232
H          2.86540        1.22869        1.11543
H          2.87847        0.53976       -0.50297
H          2.67778       -1.77107        0.48761
H          2.68685       -1.06627        2.10478
H          4.94019       -0.90726        0.01111
H          4.72246        0.47552        2.78574
H          5.75592        0.95121        1.42781
H          8.08240       -0.11820        1.77500
H          7.23739       -0.92210        0.44199
H          8.03742       -1.87808        1.70079
H          4.68032       -2.39858        2.72148
H          5.69941       -2.84701        1.34498
