20

C          1.58840        0.95698        1.30980
C          2.20281        0.19622        0.39811
C          3.25220       -0.85291        0.70830
C          2.82192       -2.23827        0.18093
C          3.20602       -2.20827       -1.27729
C          4.57055       -2.60799       -1.76583
C          4.28294       -1.16987       -1.44082
C          4.55132       -0.57667       -0.07997
H          0.84691        1.68964        1.00406
H          1.80082        0.87101        2.36967
H          1.94052        0.33527       -0.65074
H          3.44516       -0.88366        1.78689
H          1.75297       -2.42909        0.31913
H          3.37885       -3.02975        0.69735
H          2.36564       -2.18782       -1.95752
H          4.66894       -2.87297       -2.81332
H          5.21789       -3.17415       -1.10749
H          4.17001       -0.43889       -2.22949
H          4.79184        0.49004       -0.13798
H          5.39686       -1.09238        0.39182
