20

C          0.97149        0.10433       -1.62134
C          2.46421        0.07685       -1.59901
C          3.17751       -0.80219       -0.87550
C          4.68184       -0.81634       -0.82146
C          5.18602       -1.29339        0.53710
N          5.14067       -1.70578       -1.86423
C          6.34545       -1.59952       -2.47022
N          6.79811       -2.39671       -3.36723
H          0.62457        0.89923       -2.28946
H          0.57238        0.30985       -0.62332
H          0.56566       -0.84311       -1.98860
H          2.97782        0.81165       -2.21638
H          2.65215       -1.53910       -0.27083
H          5.06202        0.19773       -0.99911
H          4.84869       -2.31271        0.75921
H          4.83169       -0.63746        1.33963
H          6.28117       -1.29921        0.56633
H          4.54775       -2.49425       -2.08533
H          6.95306       -0.74103       -2.13518
H          6.10475       -3.12122       -3.56223
