20

C          2.12944       -1.45714       -0.56872
C          2.37984       -0.05358       -0.04126
C          3.00461        0.82078       -1.09375
C          4.32396        1.02572       -1.29256
C          5.40752        0.35426       -0.49755
C          4.76331        1.94365       -2.40938
N          3.90160        2.54824       -3.27497
N          6.00632        2.24366       -2.63363
H          1.67306       -2.07787        0.20826
H          3.06458       -1.93672       -0.87805
H          1.45415       -1.44116       -1.43081
H          2.99229       -0.09410        0.86498
H          1.42771        0.39581        0.26536
H          2.27216        1.30172       -1.73608
H          5.02842       -0.35280        0.24406
H          6.00696        1.09654        0.03894
H          6.06360       -0.21781       -1.16232
H          3.01137        2.84528       -2.90395
H          4.37705        3.28528       -3.78598
H          6.63580        1.77904       -1.97811
