23

C          1.00683        0.04385       -0.03681
C          2.52743        0.02063       -0.01277
C          3.11421        0.12984       -1.42470
C          4.65520        0.14690       -1.44581
N          5.22565       -1.09145       -0.92082
C          5.16488        0.32269       -2.85034
C          5.93340        1.34688       -3.25562
C          6.45809        1.49790       -4.64639
H          0.61110       -0.04538        0.98010
H          0.61182       -0.78866       -0.62791
H          0.63366        0.97897       -0.46578
H          2.85049       -0.90966        0.46607
H          2.89127        0.84992        0.60521
H          2.74084        1.05226       -1.89035
H          2.73677       -0.69976       -2.03787
H          5.00724        0.97513       -0.81835
H          4.77722       -1.88871       -1.36696
H          5.01638       -1.16781        0.07179
H          4.89076       -0.44851       -3.56695
H          6.22569        2.11681       -2.54426
H          6.14331        0.67792       -5.29888
H          7.55198        1.51940       -4.62998
H          6.10137        2.43691       -5.07964
