22

C          1.01186        0.53055       -1.04426
C          2.50475        0.54875       -1.06784
C          3.25538       -0.56445       -1.03898
C          4.75304       -0.57096       -1.03926
N          5.23343       -1.28863       -2.21724
C          6.70426       -1.32458       -2.22712
C          7.24635       -2.06452       -3.46482
N          6.76497       -1.48018       -4.72156
H          0.62877        1.55553       -1.00511
H          0.63938        0.00270       -0.16097
H          0.61317        0.05807       -1.94685
H          2.98198        1.52542       -1.10760
H          2.77245       -1.53819       -0.99830
H          5.09197       -1.07093       -0.12424
H          5.14574        0.45287       -1.02689
H          4.93563       -0.76757       -3.04259
H          7.07465       -1.83269       -1.32915
H          7.10183       -0.30158       -2.22306
H          6.94825       -3.11877       -3.42680
H          8.34097       -2.03152       -3.45163
H          5.75727       -1.63066       -4.76962
H          7.15476       -2.01287       -5.49855
