22

C          2.89659       -0.57072        1.34913
C          2.42543        0.11152        0.06885
C          3.00986        1.52772       -0.17972
C          2.43669        2.06792       -1.50189
N          2.60295        2.43108        0.91275
C          4.53051        1.47159       -0.27293
C          5.38026        2.71555       -0.40999
N          5.35509        1.96912        0.84001
H          2.42904       -1.55767        1.43631
H          2.62536        0.00543        2.23852
H          3.98075       -0.72136        1.34918
H          1.32872        0.16259        0.09305
H          2.68244       -0.54192       -0.77557
H          1.34116        2.10621       -1.48014
H          2.73398        1.43469       -2.34551
H          2.79967        3.08006       -1.71605
H          1.58644        2.41930        0.99656
H          2.84517        3.38978        0.66638
H          4.89461        0.57655       -0.76495
H          4.91740        3.69338       -0.40473
H          6.29408        2.63996       -0.98581
H          4.70071        2.37636        1.52259
