16

C          1.06752        0.06446        0.03586
C          2.37137        0.06446        0.03586
C          3.89137        0.06446        0.03586
C          4.44498        1.39545        0.47203
C          5.05792        1.26557        1.66160
C          4.98316       -0.09154        2.22673
C          5.65996       -1.24117        1.53784
C          4.23636       -0.89561        1.17517
H          0.00210        0.06690        0.03909
H          4.30018       -0.27358       -0.92019
H          4.38353        2.30122       -0.11009
H          5.55628        2.07662        2.17984
H          4.66769       -0.18525        3.25776
H          5.82273       -2.14563        2.11714
H          6.44635       -1.03732        0.82129
H          3.45879       -1.58396        1.47916
