17

C          0.93618       -0.07386       -0.02171
C          2.45618       -0.07386       -0.02171
C          3.76004       -0.07386       -0.02171
C          5.28004       -0.07386       -0.02171
C          6.58389       -0.07386       -0.02171
C          8.10389       -0.07386       -0.02171
C          8.64252        0.59039       -1.29021
N         10.10513        0.60886       -1.30692
H          0.56301       -0.60484        0.85843
H          0.56301       -0.57061       -0.92162
H          0.56301        0.95385       -0.00195
H          8.45647       -1.10951        0.04838
H          8.45439        0.45942        0.86973
H          8.26928        1.61844       -1.36781
H          8.28546        0.05046       -2.17470
H         10.45025        1.17810       -0.53460
H         10.42369        1.06791       -2.15997
