13

C          0.97444       -0.10848        0.05399
C          2.49779       -0.07097        0.06686
C          3.00446        1.01430       -0.86903
C          3.43908        1.94524       -1.67183
C          3.00445        0.19690        1.47467
C          3.43907        0.42668        2.68230
C          3.95106        0.69890        4.10348
N          4.33565        0.90060        5.17927
H          0.59598       -0.30873       -0.95464
H          0.54433        0.84403        0.38627
H          0.59632       -0.89261        0.71946
H          2.89131       -1.03709       -0.27004
H          3.79557        2.70755       -2.32598
