22

C          0.68196       -0.01569       -0.27638
C          1.90863       -0.08093        0.62638
C          2.46612       -1.49434        0.91079
C          1.44911       -2.40896        1.60237
C          3.06989       -2.16865       -0.33788
N          4.26221       -1.45339       -0.76270
C          4.97668       -1.80789       -1.85831
N          6.18790       -1.45698       -2.08889
H          0.51552        1.01893       -0.59703
H         -0.21867       -0.33715        0.25209
H          0.79325       -0.62482       -1.17654
H          1.66144        0.40004        1.58091
H          2.69976        0.53001        0.17569
H          3.29315       -1.36312        1.62539
H          1.52810       -2.29160        2.68915
H          1.63204       -3.46485        1.37945
H          0.41623       -2.18619        1.32544
H          3.36333       -3.19693       -0.09497
H          2.34278       -2.22419       -1.15446
H          4.78468       -1.00286       -0.02142
H          4.43048       -2.44609       -2.57504
H          6.52495       -0.85834       -1.32762
