16

C          0.90907        0.03017       -0.08906
C          2.43827        0.10440       -0.00416
C          2.89736        1.36092        0.77045
C          2.48680        1.34963        2.18192
N          2.14849        1.31119        3.28996
C          2.99515       -1.21857        0.55700
C          4.51390       -1.19394        0.61369
N          5.77382       -1.17350        0.66072
H          0.50204        0.93492       -0.55266
H          0.45237       -0.07973        0.90024
H          0.59557       -0.82582       -0.69586
H          2.81362        0.21508       -1.03136
H          2.48741        2.25314        0.28360
H          3.98740        1.46060        0.71245
H          2.68764       -2.05531       -0.08139
H          2.60641       -1.41747        1.56216
