18

C          1.06504        0.05122       -0.05609
C          2.58504        0.05122       -0.05609
C          3.88889        0.05122       -0.05609
C          5.40889        0.05122       -0.05609
C          5.95732        1.29798        0.63923
N          7.41888        1.36208        0.51941
N          8.01819        2.35351        1.21989
C          9.31033        2.30276        1.20015
H          0.69193        1.07901       -0.07345
H          0.69189       -0.44759        0.84268
H          0.69186       -0.47769       -0.93747
H          5.75124        0.01080       -1.09700
H          5.76454       -0.85617        0.44589
H          5.67329        1.27673        1.69895
H          5.51563        2.20122        0.20055
H          7.82452        0.44398        0.70796
H          9.88864        3.05793        1.75294
H          9.88530        1.53193        0.65964
