20

C          1.22031        0.06877       -0.10715
C          2.71124        0.17275       -0.10089
C          3.45642        0.92028       -0.94028
C          2.88581        1.75667       -2.06351
C          3.61339        1.51801       -3.39322
C          5.10576        1.48889       -3.24591
C          5.70191        1.26054       -2.06586
C          4.96370        0.98789       -0.78361
H          0.89499       -0.62450        0.67575
H          0.85161       -0.31491       -1.06259
H          0.76232        1.04053        0.10301
H          3.21156       -0.39067        0.68518
H          2.98039        2.81403       -1.78461
H          1.81729        1.57197       -2.21625
H          3.33723        2.31558       -4.09294
H          3.28830        0.57113       -3.84118
H          5.70702        1.65912       -4.13464
H          6.78716        1.26177       -2.00903
H          5.20777        1.78554       -0.07206
H          5.34186        0.04560       -0.36775
