19

C          1.44126       -0.23886        1.06579
C          2.31491       -0.00950        0.07743
C          3.11951        1.25342       -0.06167
C          4.62763        0.97219       -0.01679
N          5.38308        2.22630       -0.16527
N          6.76955        1.94549       -0.06830
C          7.62177        3.01064       -0.21916
N          7.30897        4.25429       -0.33211
H          0.88118       -1.16868        1.10778
H          1.25784        0.48981        1.84982
H          2.45185       -0.76844       -0.69083
H          2.85207        1.96602        0.72915
H          2.85775        1.72542       -1.01666
H          4.89499        0.28292       -0.82794
H          4.88481        0.48813        0.93421
H          5.11666        2.84414        0.60948
H          7.10946        1.07356       -0.47706
H          8.68144        2.70464       -0.22880
H          6.28414        4.29021       -0.35078
