18

C          2.33302        0.30670        1.42579
C          2.51089        0.05252       -0.06437
N          3.08278       -1.27590       -0.28618
C          4.44515       -1.47805       -0.35282
C          4.95188       -2.71267       -0.40939
C          4.05400       -3.91452       -0.37076
N          2.60784       -3.62743       -0.38738
C          2.26472       -2.38857       -0.33355
H          1.93812        1.31307        1.59586
H          3.28390        0.21775        1.96056
H          1.63422       -0.41417        1.86563
H          3.16156        0.82468       -0.49256
H          1.54533        0.14255       -0.57441
H          5.06906       -0.59016       -0.35657
H          6.02192       -2.87239       -0.46652
H          4.27720       -4.48684        0.53694
H          4.28624       -4.55717       -1.22663
H          1.19077       -2.13604       -0.32730
