18

C          1.17779       -0.16178       -0.07938
N          2.60420       -0.03524       -0.00103
C          3.44063       -1.21033        0.01549
C          4.76621       -0.61261        0.48131
N          4.66716        0.85542        0.27066
C          3.38853        1.09023        0.04156
C          3.01101        2.51771       -0.14391
C          1.80698        3.00350       -0.45812
H          0.86380       -1.20437        0.04135
H          0.80419        0.17888       -1.04966
H          0.69743        0.41239        0.71897
H          3.53267       -1.62767       -0.99301
H          3.08418       -1.98634        0.69855
H          5.61225       -1.02747       -0.07518
H          4.92603       -0.80493        1.54825
H          3.84356        3.20577       -0.01521
H          0.93517        2.38890       -0.61915
H          1.67454        4.07610       -0.57345
