24

C          0.49386        1.96370       -1.58236
C          1.98133        2.11768       -1.86719
N          2.75320        1.89497       -0.64538
C          4.21407        1.88807       -0.86953
C          4.88322        1.45444        0.44355
C          4.77207        3.26295       -1.34097
N          6.23193        3.24187       -1.50308
C          6.73539        4.52036       -1.98182
H         -0.08333        2.14770       -2.49467
H          0.15853        2.67909       -0.82351
H          0.25559        0.95352       -1.23250
H          2.14912        3.12876       -2.24897
H          2.27073        1.40105       -2.64399
H          2.47824        1.00135       -0.23470
H          4.45010        1.12899       -1.62624
H          4.48488        0.49637        0.79430
H          5.96170        1.31858        0.31205
H          4.72988        2.19744        1.23381
H          4.31658        3.53382       -2.30041
H          4.49262        4.03230       -0.60902
H          6.49424        2.50870       -2.15793
H          6.36978        5.35367       -1.37279
H          6.45570        4.68994       -3.02646
H          7.82788        4.52178       -1.91839
