18

C          1.02915       -0.05870       -0.08760
C          2.36565        0.00171       -0.10536
C          3.20357       -0.87197        0.68499
C          4.54289       -0.84362        0.73651
C          5.38519       -1.73505        1.61715
C          6.75164       -1.04422        1.66162
C          6.68878       -0.08199        0.52078
C          5.45072        0.02430        0.02951
H          0.44156        0.62768       -0.68842
H          0.48904       -0.77658        0.52108
H          2.84419        0.75011       -0.73048
H          2.68423       -1.60156        1.30500
H          5.48366       -2.72690        1.15825
H          4.96692       -1.85735        2.62122
H          7.56657       -1.76474        1.54598
H          6.89251       -0.50229        2.60348
H          7.53878        0.48612        0.16886
H          5.16635        0.68908       -0.77285
