21

C          2.92379        0.37738        1.44176
N          2.53934        0.00977        0.07470
C          1.07898       -0.11690       -0.00254
C          3.00423        1.00912       -0.91430
C          4.52699        1.14636       -1.03250
C          5.26943       -0.12189       -1.41963
N          4.60182       -1.27791       -1.67175
N          6.56111       -0.12771       -1.50066
H          2.54313       -0.35944        2.15780
H          2.54195        1.36397        1.72742
H          4.01184        0.37548        1.56069
H          0.71718       -0.86223        0.71529
H          0.77672       -0.46749       -0.99553
H          0.56959        0.83221        0.20077
H          2.57969        1.99545       -0.68556
H          2.62045        0.72517       -1.90344
H          4.96115        1.52768       -0.10184
H          4.75081        1.89323       -1.80463
H          3.75358       -1.39529       -1.11541
H          5.21656       -2.08314       -1.63300
H          6.93551        0.80132       -1.28449
