20

C          0.93893        0.19375       -0.12627
N          2.35748       -0.10687       -0.03571
C          3.12926        0.95445        0.61941
C          4.62578        0.55176        0.71549
N          5.27164        1.05330       -0.52044
C          4.52922        2.28443       -0.85641
C          3.28603        2.29173       -1.68387
C          3.18027        2.23272       -0.17764
H          0.43177       -0.63050       -0.63831
H          0.74012        1.10550       -0.69743
H          0.49103        0.28718        0.86755
H          2.74105       -0.27624       -0.96243
H          2.74079        1.13362        1.62911
H          4.78145       -0.52222        0.85899
H          5.08571        1.06831        1.56811
H          5.12682        0.35600       -1.25317
H          5.10105        3.20427       -0.79073
H          3.04011        1.42276       -2.27830
H          3.00878        3.22508       -2.16387
H          2.87507        3.10764        0.38072
