18

C          1.08192        0.07829        0.06093
N          2.52019       -0.00553        0.21765
C          3.04522       -0.82659        1.04703
N          4.41009       -0.94200        1.09164
C          4.79316       -2.16838        1.73844
C          3.48793       -2.56448        2.36031
C          2.44259       -1.79858        1.99814
C          1.04982       -1.86165        2.48402
H          0.85573        0.76149       -0.76364
H          0.59858        0.48147        0.95481
H          0.64862       -0.89068       -0.20619
H          4.89602       -0.63326        0.26117
H          5.56448       -1.99378        2.49248
H          5.12975       -2.91712        1.01533
H          3.42041       -3.38287        3.06297
H          0.94618       -2.59751        3.28904
H          0.36163       -2.15342        1.68716
H          0.73849       -0.89428        2.88970
