18

C          1.02287        0.03853        0.41244
C          2.51242       -0.03144        0.08550
C          2.91788       -1.42588       -0.43957
C          2.66054       -1.38933       -1.92294
C          3.68973       -0.85790       -2.88076
C          2.63747        0.06526       -2.34387
C          2.79458        0.86080       -1.10085
O          3.02262        2.05858       -1.08888
H          0.75861       -0.67075        1.20325
H          0.40380       -0.19012       -0.46405
H          0.74713        1.04504        0.74444
H          3.11843        0.25177        0.95086
H          2.36415       -2.23231        0.05238
H          3.98611       -1.59642       -0.25714
H          1.85668       -2.02757       -2.26143
H          3.60797       -1.15798       -3.92056
H          4.71190       -0.73116       -2.54413
H          1.85848        0.39917       -3.01706
