18

C          1.72819       -1.34555       -1.27206
O          1.90721       -0.09977       -0.60881
C          2.32786        0.99613       -1.46753
C          3.31043        1.93386       -0.78137
C          3.57177        3.39200       -0.96440
C          3.76843        1.00517       -1.88468
C          4.04098        1.46639       -3.26508
O          4.92688        0.95851       -3.94183
H          1.48364       -2.09789       -0.51615
H          2.64439       -1.66054       -1.78064
H          0.89976       -1.28450       -1.98246
H          1.58447        1.40514       -2.14735
H          3.45223        1.67819        0.26674
H          2.66248        3.99629       -0.98108
H          4.16190        3.61414       -1.85923
H          4.18971        3.73892       -0.12359
H          4.42882        0.21488       -1.54593
H          3.42382        2.30232       -3.66246
