22

C          1.02959       -0.22148        2.34311
O          2.44861       -0.22481        2.27746
C          2.92309       -0.82394        1.07374
C          4.44965       -0.83079        1.08516
C          5.00978       -1.64654        2.25418
C          6.53646       -1.65369        2.25597
C          7.08529       -2.45138        3.43194
O          8.50620       -2.42979        3.41153
H          0.73086        0.23220        3.29203
H          0.64103       -1.24394        2.30781
H          0.61036        0.37047        1.52414
H          2.56553       -0.24524        0.21456
H          2.54184       -1.84862        0.99301
H          4.81427        0.20049        1.16574
H          4.81606       -1.23955        0.13615
H          4.63801       -2.67640        2.19175
H          4.65119       -1.23154        3.20364
H          6.92281       -0.62785        2.30233
H          6.91587       -2.07605        1.31736
H          6.75325       -3.49408        3.39537
H          6.75492       -2.02057        4.38283
H          8.79227       -2.82703        2.57169
