18

N          1.07401       -1.18961        0.92855
N          2.42017       -1.14212        1.02648
C          3.02560       -1.18451       -0.11819
C          4.53667       -1.18213       -0.18378
C          5.01284       -2.41540       -0.95820
C          5.31922       -1.86769       -2.31550
C          5.32919       -0.53113       -2.32340
C          5.03176        0.03620       -0.97239
H          0.65697       -1.05448        1.85247
H          0.69560       -0.45178        0.33184
H          2.47700       -1.23237       -1.07846
H          4.92621       -1.17599        0.84008
H          4.25295       -3.20162       -1.01179
H          5.92298       -2.83353       -0.51609
H          5.53757       -2.48984       -3.17326
H          5.55906        0.07652       -3.18838
H          4.28636        0.83570       -1.03281
H          5.95058        0.44249       -0.53634
