14

N          1.90724        0.82055        0.58551
C          2.88738        0.09323        0.17946
C          2.75341       -1.38746       -0.19691
C          4.09306       -1.58436       -0.85891
C          4.85130       -0.49506       -0.70059
N          4.18058        0.48576       -0.03400
C          6.18339       -0.37749       -1.12304
C          7.32272       -0.48727       -1.49242
H          1.04789        0.25944        0.62347
H          1.91528       -1.55288       -0.87480
H          2.67405       -2.00124        0.70413
H          4.40312       -2.48317       -1.36891
H          4.46544        1.45240       -0.04364
H          8.30745       -0.72060       -1.82036
