18

O          2.87942       -0.50924       -1.17437
C          2.39975       -0.00267        0.06311
C          2.88635       -0.88308        1.20449
C          4.41242       -0.94525        1.27153
C          4.88267       -1.82453        2.41270
O          4.24874       -1.94568        3.45943
C          6.19623       -2.50854        2.22278
C          6.70119       -3.30657        3.17112
H          2.50381        0.05140       -1.87545
H          1.30561        0.00536        0.03500
H          2.75650        1.02526        0.18297
H          2.49916       -1.90097        1.07084
H          2.47941       -0.50435        2.14946
H          4.82993        0.05644        1.42613
H          4.80895       -1.34020        0.32991
H          6.72142       -2.33783        1.29110
H          6.17465       -3.48133        4.10637
H          7.65444       -3.80513        3.03113
