18

C          1.00239       -0.08914        0.15348
C          2.51603       -0.02164        0.03063
C          3.14580       -1.22844       -0.56716
C          4.09647       -0.83391       -1.40485
O          4.23761        0.52709       -1.57131
C          3.09113        1.09517       -0.86911
C          2.15994        1.71683       -1.92218
O          1.67763        0.75991       -2.86425
H          0.71114       -0.89060        0.84181
H          0.51099       -0.29318       -0.80232
H          0.60592        0.84994        0.55374
H          2.92838        0.09464        1.04239
H          2.92169       -2.25168       -0.30648
H          4.79430       -1.43671       -1.96260
H          3.47095        1.90648       -0.23522
H          2.70410        2.47599       -2.49501
H          1.29849        2.20040       -1.45413
H          2.46217        0.27594       -3.18478
