16

C          1.21031       -1.53639        0.13766
C          2.52911       -1.31211        0.18044
C          3.13253       -0.54171        1.29345
O          2.53004       -0.05664        2.23232
O          4.47869       -0.60914        1.13153
C          5.26447       -0.71523        2.33175
C          6.24823       -1.85838        2.26648
C          6.73663       -0.44241        2.22989
H          0.78045       -2.16462       -0.63448
H          0.53851       -1.11871        0.88375
H          3.20307       -1.75640       -0.54282
H          4.79370       -0.50787        3.29086
H          6.29402       -2.43205        1.34762
H          6.38554       -2.44597        3.16233
H          7.11665       -0.04991        1.29520
H          7.24269       -0.07344        3.11345
