20

C          3.22776       -0.12005       -1.21300
C          2.36592        0.17220        0.00720
C          2.96836       -0.42070        1.28655
C          2.03347       -0.27097        2.50929
O          2.14916       -1.68684        2.81295
C          2.69777       -1.93032        1.48875
O          4.33544        0.06573        1.42736
C          5.10224       -0.34617        2.55036
H          2.76862        0.30690       -2.11081
H          3.34782       -1.19647       -1.36646
H          4.22595        0.31887       -1.11109
H          1.35878       -0.22703       -0.16769
H          2.26112        1.25732        0.11820
H          0.99267       -0.00024        2.29945
H          2.40330        0.35383        3.32656
H          1.94502       -2.38365        0.83572
H          3.57332       -2.58308        1.52461
H          6.10765        0.07128        2.44446
H          5.18856       -1.43436        2.59195
H          4.66691        0.03669        3.47581
