18

C          1.01689        0.03889        0.11344
C          2.54822       -0.07442        0.07869
C          3.06904       -0.60802        1.42126
C          3.03064       -0.93995       -1.10486
C          2.53541       -2.32739       -1.05299
C          2.12410       -3.45517       -1.00639
C          3.09445        1.33983       -0.07932
O          3.79090        1.71839       -1.01606
H          0.53954       -0.93221        0.28106
H          0.63178        0.44895       -0.82729
H          0.68618        0.70883        0.91604
H          2.67552       -1.60552        1.64417
H          2.78150        0.05068        2.24922
H          4.16391       -0.66664        1.42279
H          4.12812       -0.95667       -1.13203
H          2.71112       -0.48801       -2.05320
H          1.75348       -4.45330       -0.96071
H          2.82061        2.04738        0.72413
