24

C          0.95493       -0.05746       -0.12088
C          2.47441       -0.05953       -0.04903
C          3.07744       -1.16252       -0.92403
C          4.61872       -1.17449       -0.91704
C          5.19651       -1.44634        0.47415
C          5.12606       -2.23120       -1.87354
C          5.92779       -1.97351       -2.91886
C          6.44806       -3.02163       -3.84939
H          0.54735        0.73227        0.51824
H          0.54589       -1.01412        0.21988
H          0.60941        0.12055       -1.14419
H          2.76758       -0.19712        0.99685
H          2.85233        0.91789       -0.36991
H          2.72501       -1.02507       -1.95545
H          2.69472       -2.13677       -0.59172
H          4.97336       -0.18766       -1.24274
H          4.80107       -2.37659        0.89758
H          4.96396       -0.63208        1.16742
H          6.28841       -1.53201        0.43595
H          4.82023       -3.25709       -1.67331
H          6.24189       -0.95273       -3.12257
H          6.08849       -4.02251       -3.58976
H          7.54180       -3.03393       -3.82139
H          6.13314       -2.80057       -4.87353
