18

C          1.57562       -0.61446       -1.00464
C          2.38709        0.07196        0.09119
C          2.93197        1.43194       -0.28048
C          1.94043        2.52974       -0.48750
O          0.73043        2.33862       -0.46142
C          4.25656        1.68577       -0.34990
C          4.92289        2.99410       -0.63486
O          4.52441        3.46510       -1.90882
H          1.30573       -1.62741       -0.67985
H          2.14977       -0.69212       -1.93175
H          0.64319       -0.08060       -1.21260
H          3.21550       -0.59561        0.36276
H          1.77357        0.16787        0.99560
H          2.34771        3.53922       -0.64772
H          4.94497        0.86954       -0.14731
H          6.01167        2.87965       -0.63047
H          4.66477        3.73958        0.12376
H          4.84755        2.82565       -2.56683
