13

N          1.11313        0.05702        0.27304
C          2.37366        0.04803        0.01542
N          3.18418       -1.00367       -0.31986
N          4.46622       -0.66333       -0.66650
C          4.52717        0.62826       -0.50766
C          3.25354        1.28194       -0.00592
C          3.46636        1.85376        1.32980
C          3.65219        2.29824        2.42900
H          0.74354       -0.89547        0.21224
H          2.86433       -1.96410       -0.37959
H          5.42336        1.22840       -0.71891
H          2.89125        2.01254       -0.73200
H          3.81467        2.67005        3.41583
