18

C          1.02466       -0.03218        0.14458
C          2.53599        0.01893        0.06209
O          3.03578        1.10079        0.84755
C          4.33314        0.65312        1.23603
C          4.16902       -0.84782        1.40488
O          3.10089       -1.20918        0.52041
C          5.38168       -1.63126        1.00222
C          6.09286       -2.41723        1.81946
H          0.58384        0.89055       -0.24522
H          0.69696       -0.13771        1.18457
H          0.63018       -0.88618       -0.41431
H          2.84892        0.16695       -0.97791
H          4.64719        1.15168        2.15771
H          5.03890        0.91840        0.43972
H          3.84400       -1.08643        2.42363
H          5.67756       -1.56002       -0.04292
H          5.83106       -2.54187        2.86702
H          6.95120       -2.96954        1.44769
