12

N          1.25402       -0.16393        0.34345
C          2.40997       -0.14812        0.22082
C          3.83694       -0.07056        0.06705
C          4.47152        1.16285       -0.02633
C          5.85548        1.18383       -0.17868
C          6.55338       -0.01831       -0.23161
C          5.83769       -1.20055       -0.12881
N          4.49608       -1.25512        0.01922
H          3.90705        2.08915        0.01684
H          6.38542        2.12964       -0.25615
H          7.63170       -0.03440       -0.35054
H          6.34004       -2.16373       -0.16434
