16

O          2.44665       -1.30678       -0.10392
C          2.38528        0.11442       -0.14337
C          2.81728        0.66368       -1.47716
C          3.23458       -0.09373       -2.50636
C          3.67829        0.50459       -3.73310
C          3.51113        1.81994       -3.90153
C          2.88164        2.66357       -2.83468
O          2.76075        2.04618       -1.54168
H          2.19180       -1.56536        0.79757
H          3.03519        0.50719        0.64558
H          1.35388        0.41767        0.06485
H          3.26961       -1.17685       -2.42999
H          4.12602       -0.12333       -4.49505
H          3.81903        2.30190       -4.82247
H          1.87834        2.96699       -3.15515
H          3.47345        3.57503       -2.69743
