17

C          1.22454       -1.18142        0.08521
C          1.93652        0.06318        0.48683
C          1.24879        1.14131        0.10807
C          0.00357        0.74562       -0.60497
C         -1.23253        1.15158        0.11824
C         -1.93184        0.07931        0.49246
C         -1.23889       -1.17097        0.07560
N         -0.00271       -0.75054       -0.61581
H          1.03816       -1.80736        0.96437
H          1.84771       -1.75626       -0.60825
H          2.87851        0.07537        1.01402
H          1.54936        2.16428        0.27687
H          0.00089        1.12421       -1.63259
H         -1.51966        2.17697        0.29590
H         -2.87134        0.09932        1.02393
H         -1.86967       -1.72484       -0.62806
H         -1.06539       -1.81403        0.94495
