15

N          1.03043        0.07136       -0.06310
C          2.29140        0.07136       -0.06310
C          3.81140        0.07136       -0.06310
C          4.26831        1.33809        0.63436
C          4.78009        1.34792        1.87891
C          4.97823        0.09871        2.69672
C          4.78210       -1.16502        1.90255
C          4.27085       -1.17995        0.65857
H          4.19586        0.06188       -1.08845
H          4.14051        2.27413        0.10010
H          5.06014        2.29000        2.34123
H          4.28093        0.10618        3.54267
H          5.99381        0.10291        3.10439
H          5.06196       -2.09878        2.38306
H          4.14400       -2.12735        0.14161
