14

N          0.95618        0.13823       -0.26714
N          2.36415        0.08221       -0.14632
C          3.16296        1.18807       -0.08836
C          4.47023        0.76393        0.01922
C          4.44914       -0.65308        0.03195
C          3.12963       -1.05290       -0.06153
C          2.64748       -2.39226       -0.06948
C          2.25160       -3.52637       -0.06888
H          0.57040        0.90856        0.27249
H          0.52646       -0.70360        0.11001
H          2.74439        2.18419       -0.13846
H          5.34164        1.40316        0.07719
H          5.30573       -1.31241        0.10263
H          1.90944       -4.53468       -0.06922
