20

N          1.03400       -1.43524        1.00966
C          2.49913       -1.38420        0.98942
C          3.03674       -0.04717        1.52827
N          4.50518       -0.06276        1.47951
C          5.11850        1.15191        2.00281
C          5.12521       -0.12627        2.80406
C          6.36142       -0.90142        2.90813
C          7.30417       -0.74996        3.84725
H          0.73363       -2.33093        0.62527
H          0.66503       -0.72280        0.38092
H          2.84268       -1.53805       -0.04050
H          2.88507       -2.21351        1.59310
H          2.63899        0.12677        2.53720
H          2.66594        0.76859        0.89458
H          4.47199        1.96006        2.32262
H          6.03109        1.46527        1.50977
H          4.48134       -0.17428        3.67684
H          6.50895       -1.67821        2.15915
H          7.21245        0.00058        4.62535
H          8.18649       -1.38167        3.85390
