14

C          1.27049        0.26241       -0.75609
C          2.35177        0.16380        0.02744
C          3.03613        1.27807        0.64418
C          4.09325        1.11251        1.45477
C          4.49764        2.46154        1.87094
O          5.42016        2.72694        2.61573
C          3.60301        3.43351        1.23669
C          2.75561        2.69438        0.51865
H          0.81503       -0.62839       -1.17797
H          0.80639        1.21150       -1.00044
H          2.75298       -0.82936        0.22519
H          4.58756        0.21447        1.77698
H          3.66274        4.49902        1.35648
H          1.95574        3.09557       -0.08587
