17

N          1.44687        0.12459        0.83218
C          2.28350        0.22653       -0.14563
N          2.99902        1.33531       -0.50202
C          2.92179        2.55129        0.30011
C          3.28657        3.64117       -0.70601
C          4.27791        2.97325       -1.65398
C          3.85228        1.52618       -1.56604
N          4.27617        0.63441       -2.39270
H          1.04602       -0.82117        0.82625
H          2.46364       -0.63419       -0.81764
H          3.65850        2.50884        1.11160
H          1.93100        2.73126        0.72875
H          3.69429        4.53727       -0.22931
H          2.38843        3.93600       -1.26394
H          5.31049        3.07374       -1.30842
H          4.18674        3.34969       -2.67605
H          4.91621        1.05410       -3.07579
