20

C          3.38607        0.49317        0.94974
C          2.39375        0.02441       -0.11357
C          2.97716       -0.53760       -1.39645
O          2.12123       -0.98046       -2.39973
C          0.71966       -0.89347       -2.20309
C          4.29347       -0.64063       -1.63532
O          4.78178       -1.15659       -2.81021
C          6.20224       -1.18094       -2.86516
H          2.84769        0.87599        1.82343
H          4.02271        1.30088        0.57348
H          4.02591       -0.32823        1.28919
H          1.75421        0.87971       -0.36101
H          1.75740       -0.73886        0.34938
H          0.23399       -1.28765       -3.10133
H          0.40153        0.14559       -2.08068
H          0.40159       -1.50654       -1.35541
H          5.05519       -0.33062       -0.93374
H          6.49575       -1.60531       -3.82967
H          6.61182       -1.81490       -2.07156
H          6.61175       -0.16753       -2.79633
