18

C          1.75386       -0.63706       -0.95441
C          2.60769        0.16547        0.01509
C          3.13315        1.42185       -0.61719
C          4.43904        1.69518       -0.74762
C          4.89552        2.90163       -1.34230
C          5.30271        3.91544       -1.84183
C          5.78466        5.11136       -2.43694
C          7.05698        5.49974       -2.29917
H          1.38903       -1.54858       -0.46981
H          2.32818       -0.93112       -1.83938
H          0.88370       -0.06129       -1.28736
H          3.42927       -0.46495        0.37508
H          2.00624        0.43655        0.89020
H          2.39292        2.13884       -0.96814
H          5.19124        0.99483       -0.39697
H          5.08877        5.71064       -3.01570
H          7.77354        4.91900       -1.72636
H          7.40875        6.41543       -2.76296
