18

O          0.76120       -0.04812       -0.10498
C          2.20338       -0.06523       -0.02807
C          2.74710        1.25680       -0.58518
C          3.59118        1.22182       -1.86021
C          4.04550       -0.11225       -2.33770
C          3.65311       -1.27340       -1.80343
C          2.72998       -1.38742       -0.64043
O          1.63564       -2.20675       -1.06340
H          0.45520        0.68456        0.46055
H          2.43358       -0.09271        1.04548
H          3.36096        1.71893        0.19943
H          1.92168        1.96435       -0.74582
H          4.47800        1.84958       -1.70370
H          3.02984        1.69624       -2.67460
H          4.71794       -0.13030       -3.19191
H          4.01760       -2.20421       -2.22799
H          3.25295       -1.94651        0.14431
H          0.84374       -1.64539       -0.91952
