20

C         -1.52034       -0.03531        0.77646
C         -1.31422       -1.28785       -0.07581
C          0.07450       -1.44382       -0.68790
O          1.08950       -1.18697        0.28245
C          1.85452       -0.01092       -0.00374
C          1.09463        1.28522        0.29151
O         -0.02307        1.42072       -0.58865
C         -1.29156        1.28784        0.04562
H         -0.87109       -0.09681        1.65711
H         -2.54701       -0.04213        1.16304
H         -2.06682       -1.33045       -0.87167
H         -1.49948       -2.15240        0.57476
H          0.18550       -0.82725       -1.58728
H          0.19706       -2.48231       -1.01581
H          2.19485       -0.04220       -1.04545
H          2.74435       -0.04996        0.63327
H          1.75918        2.13351        0.09693
H          0.79297        1.34060        1.34310
H         -2.04831        1.39907       -0.73874
H         -1.42846        2.12701        0.73780
