16

O          1.01830       -0.31350        0.32361
C          2.38116       -0.06190        0.01781
C          2.74017        1.40087        0.27251
C          2.98355        2.23800       -0.76064
O          2.84422        1.87660       -2.10709
C          1.93909        0.75358       -2.15050
C          2.06444       -0.55840       -2.78148
C          2.67780       -0.39460       -1.41014
H          0.67724        0.45209        0.81331
H          2.99184       -0.69311        0.67237
H          2.86474        1.73326        1.29615
H          3.31190        3.26391       -0.67061
H          0.89985        0.99011       -1.91391
H          2.73035       -0.64755       -3.63211
H          1.18171       -1.18351       -2.85425
H          3.76507       -0.47408       -1.48335
