16

C          1.17486       -0.13183        0.08935
O          2.59106       -0.02000       -0.00198
C          3.25119       -0.92743        0.78459
C          4.58415       -0.96186        0.81740
C          5.34415       -1.95642        1.67975
C          5.99608       -2.80956        2.41947
C          6.75608       -3.80412        3.28182
C          8.04796       -4.05488        3.05154
H          0.73217        0.62420       -0.56543
H          0.83529        0.05836        1.11312
H          0.84043       -1.11837       -0.24909
H          2.62945       -1.59727        1.36211
H          5.18234       -0.27647        0.22608
H          6.20317       -4.28939        4.07915
H          8.58889       -3.56153        2.25004
H          8.59219       -4.76401        3.66599
