20

C          1.08323       -0.01837       -0.02096
C          2.56836        0.05280        0.05180
C          3.43631       -0.77683       -0.85772
C          3.34217        0.71635       -1.06309
C          4.49936        1.61267       -0.72269
C          4.16485        3.05604       -0.94255
C          3.05125        3.73663       -0.18905
O          4.42600        3.91245        0.17667
H          0.70444       -0.74229        0.70744
H          0.73148       -0.31419       -1.01384
H          0.65085        0.95907        0.21620
H          2.90805        0.19441        1.07200
H          2.95897       -1.41620       -1.59237
H          4.35588       -1.18541       -0.45396
H          2.81468        1.04224       -1.95365
H          5.35097        1.35061       -1.36146
H          4.82495        1.44706        0.31226
H          4.41803        3.41289       -1.93191
H          2.42442        3.14740        0.46823
H          2.54880        4.56973       -0.66425
