19

C         -1.34019        1.24704        0.00031
C         -0.04628        1.45095        0.79649
C          1.16639        1.31107       -0.07005
C          1.73650        0.15944       -0.45040
C          1.36981       -1.18266       -0.07183
C          0.17324       -1.72692        0.20428
C         -1.22985       -1.19086        0.20728
N         -1.49520       -0.05516       -0.66012
H         -1.39884        2.01215       -0.78490
H         -2.19791        1.42027        0.66168
H          0.00309        0.77838        1.65962
H         -0.05367        2.46351        1.22104
H          1.59766        2.24046       -0.43539
H          2.61923        0.22017       -1.08864
H          2.23030       -1.85260       -0.03262
H          0.20246       -2.78351        0.47663
H         -1.56179       -1.01227        1.23739
H         -1.86347       -2.01165       -0.15427
H         -2.44821       -0.12276       -1.01481
