22

C          0.90911       -1.41111       -0.42677
C          2.42987       -1.43330       -0.41334
C          2.97922       -1.10351        0.97478
C          4.48144       -1.13089        0.99114
C          5.20027       -1.95231        1.77066
C          6.64411       -1.95969        1.78133
C          7.36014       -2.77948        2.56493
C          8.85372       -2.80642        2.59500
H          0.53494       -1.64695       -1.42793
H          0.52870       -0.42397       -0.14543
H          0.50022       -2.14886        0.27101
H          2.80492       -0.71070       -1.14842
H          2.77695       -2.42428       -0.73020
H          2.57054       -1.80849        1.70914
H          2.64757       -0.10266        1.27649
H          4.98355       -0.42530        0.33187
H          4.69142       -2.65079        2.43207
H          7.15426       -1.26273        1.11943
H          6.85802       -3.47859        3.22989
H          9.29583       -2.08065        1.90531
H          9.21351       -3.80240        2.31947
H          9.20984       -2.57892        3.60446
