20

C         -1.50685        0.07011        0.86207
N         -1.42964       -1.34816        0.40354
C         -0.26132       -0.96593       -0.44443
C          1.06882       -1.16610        0.28346
C          2.01363       -0.01302       -0.04632
N          1.41314        1.27313        0.32325
C          0.24130        1.57096       -0.50394
C         -0.81078        0.47735       -0.45467
H         -0.94114        0.26449        1.78085
H         -2.52421        0.44899        0.99836
H         -2.24420       -1.62778       -0.14387
H         -0.25328       -1.43513       -1.43590
H          1.52067       -2.11806       -0.01899
H          0.93573       -1.21656        1.37220
H          2.28511       -0.01830       -1.10863
H          2.93987       -0.14228        0.52502
H          2.10426        2.01339        0.20127
H          0.56539        1.72014       -1.54181
H         -0.19635        2.51963       -0.17442
H         -1.55109        0.64079       -1.25402
