20

C          2.78915       -1.55156        0.20887
C          2.45751       -0.07527        0.03443
O          1.03395        0.06935        0.02704
C          3.02611        0.82002        1.14165
C          4.55510        0.81766        1.21207
O          5.09968        1.27442       -0.01878
C          5.05684        1.71564        2.30704
C          5.80298        1.29477        3.33822
H          2.27728       -2.14992       -0.55251
H          2.44308       -1.91839        1.18184
H          3.86239       -1.74206        0.12430
H          2.81305        0.26244       -0.94462
H          0.69580       -0.23779        0.88565
H          2.60041        0.52262        2.10915
H          2.66314        1.84176        0.96043
H          4.92268       -0.20130        1.37135
H          4.87759        2.21582       -0.11349
H          4.79264        2.76864        2.25223
H          6.10189        0.25577        3.43995
H          6.14199        1.98957        4.10053
