18

C         -0.66214        1.18222        0.90193
C          0.62902        1.84933        0.36898
C          0.71167        0.72016       -0.68596
N          1.43368       -0.40159       -0.08437
N          0.95605       -1.63334        0.16691
C         -0.29295       -1.86734       -0.07949
C         -1.26025       -0.88791       -0.66502
C         -0.80967        0.54366       -0.51173
H         -1.45721        1.86917        1.20123
H         -0.49090        0.47274        1.72009
H          1.45721        1.94165        1.07912
H          0.44882        2.83742       -0.07437
H          1.05849        1.00618       -1.68095
H          2.40980       -0.27337        0.18375
H         -0.67714       -2.88518        0.11114
H         -2.24156       -1.04066       -0.20381
H         -1.36240       -1.14474       -1.72650
H         -1.38806        1.20180       -1.17721
