16

C          1.15173       -0.39655       -0.19864
C          2.58866        0.00275       -0.03932
O          3.07830        0.98804       -0.57989
C          3.40254       -0.84015        0.85915
O          3.47622       -2.22957        0.51004
C          4.67638       -1.46033        0.33057
C          5.82103       -1.56729        1.24048
C          6.67560       -0.57793        1.53436
H          0.63307        0.34810       -0.80931
H          0.67037       -0.44254        0.78134
H          1.08767       -1.36735       -0.69655
H          3.34743       -0.59031        1.91114
H          4.95481       -1.24245       -0.69700
H          5.97598       -2.54012        1.70329
H          6.56703        0.40962        1.09468
H          7.50255       -0.73770        2.21819
