22

C          1.13882        0.30351        0.07958
C          2.63625        0.04790        0.05515
C          3.03800       -1.42375       -0.14201
C          2.42387       -2.08490       -1.38444
C          2.90878       -1.49581       -2.70219
O          2.36079       -2.24555       -3.78266
O          4.47255       -1.43547       -0.17757
C          5.05613       -2.73133       -0.16058
H          0.93732        1.31468        0.44918
H          0.62183       -0.40499        0.73392
H          0.70931        0.23036       -0.92431
H          3.06634        0.39215        1.00569
H          3.10461        0.67681       -0.71172
H          2.71118       -1.98114        0.74712
H          1.32881       -2.04381       -1.34368
H          2.65849       -3.15688       -1.37971
H          3.99977       -1.52394       -2.78977
H          2.58241       -0.45856       -2.81550
H          2.75315       -3.13456       -3.74854
H          6.11927       -2.62175        0.06532
H          4.97061       -3.19577       -1.14846
H          4.59626       -3.36754        0.59910
