18

C         -1.75145        0.90729       -0.13107
C         -1.62193       -0.60791       -0.33192
C         -0.36069       -0.90335        0.45636
O         -0.30063        0.23774        1.30979
C         -0.36291        1.37511        0.37331
C          1.18092        1.41638        0.26453
C          1.77291        0.01756       -0.02533
O          0.76798       -0.92532       -0.42597
H         -2.49896        1.11186        0.64807
H         -2.11466        1.42847       -1.02773
H         -1.53183       -0.88168       -1.38720
H         -2.49718       -1.10839        0.09466
H         -0.40627       -1.83272        1.03057
H         -0.19600        1.28669       -0.72727
H          1.60626        1.78264        1.21005
H          1.52615        2.15144       -0.47834
H          2.28800       -0.37613        0.85799
H          2.51150        0.08205       -0.83104
