17

N          0.92432        0.01849       -0.03609
C          2.37717        0.02923       -0.02297
C          2.88383       -1.03671        0.93486
C          3.31844       -1.95108        1.75649
C          3.82511       -3.01703        2.71433
C          4.59633       -4.01949        2.27513
C          5.10056       -5.05446        3.14656
C          5.87148       -6.05922        2.71528
H          0.59018        0.78776       -0.61183
H          0.58508        0.19470        0.90798
H          2.74658        1.00874        0.29732
H          2.76198       -0.17400       -1.02709
H          3.52460       -2.91246        3.75147
H          4.86169       -4.07125        1.22127
H          4.83590       -5.00751        4.20105
H          6.16608       -6.15714        1.67502
H          6.22755       -6.81639        3.40701
