18

C          1.00290        0.07373       -1.10492
C          2.49609        0.09662       -1.13107
C          3.22351        1.08592       -0.59121
C          4.72509        1.10650       -0.57526
C          5.29895        2.33369       -1.28432
O          6.73666        2.29833       -1.26224
C          7.31157        2.74451       -0.11794
O          6.73688        3.16288        0.87370
H          0.63661       -0.83556       -1.59198
H          0.58878        0.93202       -1.64253
H          0.63104        0.07363       -0.07560
H          2.99044       -0.74850       -1.60466
H          2.72067        1.92012       -0.10367
H          5.14051        0.20108       -1.03598
H          5.06268        1.08466        0.46752
H          4.92972        3.27145       -0.85050
H          4.99988        2.33321       -2.33899
H          8.40532        2.66425       -0.21329
