20

C          0.93913        0.03081       -0.04495
C          2.45998       -0.02002       -0.08978
C          3.01956       -1.22404       -0.86429
C          2.55813       -1.23990       -2.32668
O          3.05576       -2.39578       -2.99594
C          4.54747       -1.21108       -0.80667
C          5.21014       -1.43172        0.52967
O          5.23724       -1.06263       -1.81874
H          0.61045        0.81519        0.64464
H          0.52129       -0.92019        0.29977
H          0.51665        0.26235       -1.02719
H          2.82512       -0.04479        0.94370
H          2.83995        0.91393       -0.52209
H          2.70115       -2.16252       -0.39222
H          2.88959       -0.34961       -2.87295
H          1.46783       -1.28859       -2.39288
H          4.01888       -2.24841       -3.10137
H          4.47049       -1.61076        1.31308
H          5.79782       -0.54736        0.78814
H          5.85816       -2.30930        0.46542
