20

C          1.01935       -0.15083       -0.11050
O          2.43425       -0.27631       -0.10324
C          2.95081       -0.95194        1.05231
C          2.47366       -2.40668        1.11093
C          4.47207       -0.80515        1.02282
C          5.27670       -1.67294        0.38199
O          4.91423        0.29096        1.74466
C          6.31365        0.54712        1.78400
H          0.74204        0.57238       -0.88239
H          0.64265        0.20590        0.85296
H          0.55644       -1.10802       -0.36728
H          2.58441       -0.43965        1.95234
H          2.61546       -2.91399        0.15041
H          1.40082       -2.45230        1.32731
H          2.99083       -2.96758        1.89594
H          4.87055       -2.50919       -0.17772
H          6.35534       -1.58209        0.36243
H          6.47677        1.44646        2.38525
H          6.70817        0.73802        0.78044
H          6.84835       -0.27821        2.26572
