16

C          1.04038        0.00065       -0.04993
C          2.52837        0.14029       -0.04276
C          3.26323        1.24874        0.18750
C          2.54846        2.53694        0.45189
O          3.15272        3.58415        0.65929
C          4.74244        1.25322        0.17122
C          5.47357        1.01548        1.47046
O          5.53590        0.07276        0.39492
H          0.76947       -1.04754       -0.21559
H          0.59489        0.58803       -0.85797
H          0.60993        0.30068        0.91010
H          3.07044       -0.78525       -0.24224
H          1.44845        2.50591        0.44777
H          5.16524        1.99414       -0.50146
H          4.91417        0.72794        2.35187
H          6.35747        1.60730        1.67249
