18

C          1.26462        0.23174       -0.45019
C          2.71379       -0.11719       -0.19218
C          2.79517       -1.53790        0.34229
C          4.03391       -0.13440       -1.07087
O          5.34546       -0.24540       -0.35663
C          5.53009        1.01293        0.23867
C          4.49380        1.82657        0.06636
C          3.48286        1.15085       -0.72329
H          0.60080       -0.27825        0.25573
H          0.96420       -0.02720       -1.46162
H          1.08297        1.30314       -0.27819
H          3.73523       -1.79480        0.83641
H          2.66772       -2.23297       -0.50940
H          1.98449       -1.76800        1.03393
H          3.97520       -0.56007       -2.06031
H          6.44930        1.18285        0.75174
H          4.40433        2.85031        0.38171
H          3.06830        1.70591       -1.56356
