24

C          0.87690       -0.06970        0.10978
C          2.39705       -0.05621        0.07376
C          2.91831        0.11822       -1.35265
C          4.44999        0.14190       -1.39124
C          4.98761        0.31519       -2.81773
O          4.51906        1.54925       -3.35831
C          6.52020        0.29401       -2.84135
C          7.07876        0.44586       -4.25021
H          0.52231       -0.19145        1.13796
H          0.47794       -0.89557       -0.48778
H          0.46715        0.86685       -0.28207
H          2.77636       -0.99283        0.49845
H          2.76404        0.76000        0.70696
H          2.51966        1.05036       -1.77051
H          2.54961       -0.70138       -1.98127
H          4.84129       -0.78845       -0.96103
H          4.80321        0.96913       -0.76268
H          4.60113       -0.48833       -3.45505
H          4.85649        2.26779       -2.79646
H          6.88559       -0.64532       -2.41046
H          6.91413        1.11370       -2.22809
H          6.71433       -0.35285       -4.90406
H          8.17201        0.39644       -4.22994
H          6.79534        1.40728       -4.68985
