16

C         -0.46758       -0.47024        0.01118
C         -0.28489       -0.95027       -1.39266
N          0.80198       -0.25744       -0.68926
C          1.88670       -0.97894       -0.30419
C          3.12016       -0.39904       -0.11737
N          4.01294       -1.38418        0.21040
C          3.36501       -2.59268        0.24381
C          2.03779       -2.36775       -0.04995
H         -0.44413       -1.17294        0.83076
H         -1.01393        0.44876        0.17202
H         -0.69041       -0.36342       -2.20507
H         -0.15985       -2.00629       -1.57881
H          3.43696        0.63088       -0.20144
H          4.99833       -1.24324        0.38809
H          3.90428       -3.50350        0.46978
H          1.27622       -3.13312       -0.09893
