20

C          2.87904        1.38427       -0.77327
C          2.59550        0.10684       -0.03381
C          1.74828       -0.81531       -0.52162
C          3.30249       -0.06648        1.28972
O          4.70896       -0.05008        1.05771
C          5.56871       -0.16242        2.13534
C          5.07667       -0.32873        3.54491
C          6.88292       -0.12211        1.88115
H          2.31450        1.45002       -1.70957
H          3.94204        1.45915       -1.02316
H          2.60333        2.24713       -0.15846
H          1.24430       -0.67614       -1.47347
H          1.54215       -1.73846        0.01165
H          3.01819       -1.01897        1.75285
H          3.01762        0.76045        1.95127
H          3.99097       -0.33711        3.64929
H          5.44899        0.48960        4.17136
H          5.44389       -1.27364        3.96081
H          7.24449       -0.00464        0.86452
H          7.62113       -0.20675        2.67088
