20

C          1.18251        0.08011       -0.11599
O          2.58304       -0.10848        0.02729
C          3.05631       -1.15585        0.81871
C          2.08108       -2.06813        1.50575
C          4.39561       -1.25424        0.89400
C          5.30721       -2.16270        1.57845
C          4.88236       -3.31358        2.44606
C          6.63318       -1.97163        1.43326
H          1.02212        0.94375       -0.76816
H          0.71685        0.30208        0.84951
H          0.71780       -0.78804       -0.59419
H          1.03084       -1.83492        1.32923
H          2.21653       -2.01505        2.59110
H          2.21760       -3.09707        1.15669
H          4.92324       -0.48864        0.31637
H          3.81129       -3.44924        2.54865
H          5.27581       -3.18451        3.46106
H          5.27587       -4.25417        2.04308
H          7.04812       -1.17080        0.82868
H          7.35080       -2.62323        1.92411
