22

C          0.61705        0.47859        0.10615
C          1.79554       -0.41002       -0.23266
C          2.96568       -0.46116        0.78365
C          3.88435       -0.76222       -0.41900
C          2.86743        0.02076       -1.30072
C          3.15249        1.51541       -1.50420
C          4.44027        1.74376       -2.29290
O          4.32067        1.24756       -3.61862
H          0.10220        0.10626        0.99853
H         -0.10602        0.48242       -0.71531
H          0.92075        1.51084        0.30118
H          1.41502       -1.42303       -0.44450
H          3.18446        0.48929        1.28054
H          2.90743       -1.24736        1.54015
H          3.94139       -1.82850       -0.67205
H          4.90137       -0.37205       -0.34568
H          2.67864       -0.45554       -2.27136
H          2.31285        1.96477       -2.04635
H          3.23802        2.02861       -0.54296
H          5.31120        1.28021       -1.81962
H          4.63988        2.81798       -2.36299
H          4.33962        0.27574       -3.57056
