20

C          3.37658        0.02860        1.01509
C          2.40515       -0.11199       -0.15644
C          3.00838       -0.27643       -1.54145
O          2.15958       -0.40784       -2.63578
C          0.75482       -0.38512       -2.43485
C          4.33488       -0.30277       -1.77419
C          4.92443       -0.45916       -3.08644
C          6.24483       -0.48346       -3.30233
H          2.82161        0.13984        1.95260
H          4.01396        0.91193        0.90153
H          4.01576       -0.85541        1.11232
H          1.76435        0.77766       -0.15466
H          1.76659       -0.97794        0.05436
H          0.28103       -0.50115       -3.41481
H          0.42999        0.57301       -2.01970
H          0.43161       -1.22070       -1.80786
H          5.03998       -0.20383       -0.95453
H          4.25043       -0.56204       -3.93467
H          6.96526       -0.38548       -2.49786
H          6.62871       -0.60393       -4.31022
