16

C          1.15563        0.24668        1.36868
C          2.39842        0.22882        0.88471
O          3.18612       -0.89373        0.92521
C          4.54322       -0.75113        0.96476
C          5.30049        0.23788        1.47122
C          6.74618       -0.13356        1.32372
C          6.66290       -1.48396        0.66830
C          5.37751       -1.81949        0.48023
H          0.55098        1.14564        1.31222
H          0.72739       -0.62943        1.84069
H          2.85905        1.08142        0.40465
H          4.94165        1.13923        1.94144
H          7.23638       -0.19950        2.29979
H          7.27512        0.58468        0.69064
H          7.51657       -2.08746        0.39949
H          5.00530       -2.72982        0.03706
