20

C          0.98474        0.06011        0.10290
C          2.51718        0.00654        0.03410
C          3.02197       -1.02843        1.05344
C          4.48627       -1.41789        0.87125
C          5.42372       -0.26462        0.54736
O          5.20078        0.88976        1.35506
C          4.21080        1.71708        0.90420
C          3.07378        1.39285        0.27145
H          0.55151       -0.92703       -0.09242
H          0.58031        0.74895       -0.64737
H          0.63810        0.39241        1.08819
H          2.79051       -0.30856       -0.98071
H          2.42079       -1.94470        0.99234
H          2.87783       -0.64438        2.07279
H          4.57114       -2.16734        0.07512
H          4.82054       -1.90927        1.79350
H          5.38832       -0.00442       -0.51959
H          6.45313       -0.59107        0.73701
H          4.46192        2.74444        1.14611
H          2.44543        2.22129       -0.05388
