14

C          0.99649        0.07369       -0.07432
C          2.47534        0.11819       -0.06990
C          3.29845        1.22303       -0.06570
N          4.59549        0.76299       -0.06130
C          5.78367        1.49452       -0.05467
O          5.74229        2.72072       -0.05237
N          4.65315       -0.59349       -0.06370
C          3.37279       -0.97179       -0.06876
H          0.56815        1.08113       -0.07535
H          0.62693       -0.45121        0.81235
H          0.63201       -0.45096       -0.96321
H          3.09415        2.28525       -0.06483
H          6.72350        0.91970       -0.05160
H          3.14092       -2.03022       -0.07123
