15

C          1.34946        0.91047        0.44011
C          2.45644        0.47933        0.26408
C          3.81218       -0.04030        0.03748
C          4.31464        0.33335       -1.32438
N          4.66979       -0.54006       -2.21319
O          5.10701        0.19329       -3.34525
C          4.59355        1.52277       -3.21106
C          4.51747        1.74941       -1.72627
H          0.36446        1.29191        0.58960
H          3.82067       -1.13102        0.13742
H          4.50634        0.36727        0.78006
H          3.60504        1.56077       -3.68255
H          5.25646        2.23368       -3.71110
H          3.70377        2.41490       -1.43605
H          5.46589        2.10029       -1.30937
