15

C          1.09395        0.03347        0.00736
C          2.61395        0.03347        0.00736
C          3.91780        0.03347        0.00736
C          5.43780        0.03347        0.00736
N          5.94500       -1.35482       -0.14177
C          6.03363        0.90555       -1.11529
O          7.20066        0.36982       -1.58054
O          5.58617        1.96415       -1.52927
H          0.72085       -0.89993       -0.42323
H          0.72086        0.87305       -0.58573
H          0.72079        0.12728        1.03097
H          5.80411        0.43963        0.95663
H          5.44653       -1.77192       -0.93531
H          5.60309       -1.88156        0.66651
H          7.32244       -0.49121       -1.10901
