15

C          2.24619       -0.01610       -0.01554
C          1.29902       -1.27452        0.01774
C          0.00368       -0.60571        0.00808
C         -0.00449        0.74766        0.00082
C          1.35601        1.29141        0.00364
C         -1.35513        1.07213       -0.00389
N         -2.12416       -0.03543       -0.00005
O         -1.22815       -1.12282        0.00833
H          2.86724       -0.03462       -0.91917
H          2.92857       -0.02632        0.84245
H          1.45965       -1.85912        0.92739
H          1.45433       -1.90375       -0.86245
H          1.55946        1.87840        0.90432
H          1.55692        1.90413       -0.88016
H         -1.83823        2.03857       -0.00904
