19

C          1.06298        0.18666       -0.01765
C          2.55176        0.07007       -0.04231
C          3.30508       -0.68584       -1.11709
C          2.59780       -1.33872       -2.18336
C          2.00554       -1.91099       -3.05701
C          3.40736        0.83489       -1.03718
C          2.75069        1.69367       -2.09445
N          4.67411        1.40848       -0.52016
H          0.65121       -0.49547        0.73351
H          0.58789       -0.05199       -0.97292
H          0.77078        1.20455        0.25921
H          2.92864       -0.01968        0.97211
H          4.18069       -1.23825       -0.78404
H          1.47670       -2.42368       -3.82667
H          1.80954        1.28185       -2.46884
H          3.42350        1.81821       -2.95000
H          2.53424        2.68785       -1.68707
H          5.04925        0.85196        0.24665
H          4.50782        2.33760       -0.13378
