18

C          0.87646        0.07747        0.07782
C          2.38578        0.07175       -0.13957
C          2.94355       -1.18554       -0.82891
O          2.02711       -2.22750       -1.06973
C          3.47163       -0.57663       -2.09573
N          3.41815        0.70910       -2.17915
N          2.74162        1.14023       -1.08754
C          3.15462        2.38717       -0.45915
H          0.56731       -0.76587        0.69802
H          0.33452        0.02045       -0.87426
H          0.56049        0.99958        0.57805
H          2.90135        0.19732        0.82395
H          3.80195       -1.59177       -0.28436
H          1.29248       -1.86182       -1.58934
H          3.92635       -1.21350       -2.86886
H          3.43558        3.12832       -1.21253
H          4.01588        2.23982        0.20387
H          2.33328        2.81557        0.12551
