19

C          0.96700       -0.10239       -0.11437
N          2.41685       -0.04499       -0.00133
C          2.90116        1.33862       -0.09497
C          4.42638        1.37834        0.01267
O          5.07666        0.65326       -1.07954
C          6.01403        1.74993       -1.24419
C          5.11019        2.68939       -0.43192
O          5.72935        3.50513        0.58594
H          0.64036       -1.14700       -0.10601
H          0.61271        0.35320       -1.04472
H          0.48992        0.39855        0.73413
H          2.84323       -0.57839       -0.76420
H          2.47354        1.93644        0.71799
H          2.57983        1.78181       -1.04624
H          4.78242        0.99754        0.97971
H          6.14804        2.01879       -2.29498
H          6.98317        1.51129       -0.79425
H          4.48220        3.31561       -1.07659
H          6.26630        2.89492        1.12252
