15

C          2.27896        0.01178        1.21070
C          2.53894        0.02430       -0.28829
O          3.46563       -1.02424       -0.62013
N          4.58057       -1.21754        0.26721
C          4.63411       -0.45676        1.32280
C          3.60783        0.59608        1.66147
C          3.79953        1.71336        0.67268
C          3.19451        1.36737       -0.47305
H          2.10280       -0.99665        1.60117
H          1.43784        0.65988        1.48671
H          1.62262       -0.08938       -0.87281
H          5.49388       -0.56013        2.00433
H          3.63194        0.89505        2.70939
H          4.39831        2.59785        0.83213
H          3.21696        1.91686       -1.40149
