15

C          1.02925       -0.02110        0.09327
C          2.54925       -0.02110        0.09327
C          3.85311       -0.02110        0.09327
C          5.37311       -0.02110        0.09327
C          5.91785        1.13404        0.90506
O          6.61332        2.03210        0.42950
N          5.61285        1.08504        2.24911
O          6.01240        2.22020        2.99637
H          0.65622        0.26633        1.08022
H          0.65607       -1.01948       -0.15126
H          0.65611        0.68993       -0.64904
H          5.73708        0.06518       -0.93580
H          5.74837       -0.96128        0.51069
H          4.78300        0.60296        2.58152
H          6.45527        2.77640        2.31736
