21

C          1.08202        0.12405       -0.01300
C          2.56674        0.07824       -0.05469
C          3.34348       -1.00941       -0.13370
C          4.79737       -0.65422       -0.14609
C          4.79341        0.86693       -0.43632
C          5.90345        1.59726        0.32222
N          4.98611        1.11309       -1.88148
C          3.38395        1.33676        0.00303
H          0.64673       -0.87912       -0.07037
H          0.69561        0.70614       -0.85587
H          0.73991        0.58901        0.91647
H          2.98268       -2.02803       -0.17283
H          5.33648       -1.22198       -0.91183
H          5.24225       -0.89017        0.82730
H          6.89438        1.23632        0.02309
H          5.81033        1.44363        1.40321
H          5.86753        2.67739        0.13889
H          5.90889        0.79158       -2.16774
H          4.95341        2.11342       -2.06956
H          2.98287        2.11112       -0.66035
H          3.38236        1.73077        1.02623
