13

C          1.16025        0.02534        0.12380
C          2.45801        0.01737       -0.17092
N          3.24869        1.11248       -0.34691
C          4.56169        0.80118       -0.66315
O          5.44939        1.61183       -0.86610
C          4.69465       -0.71129       -0.71304
C          3.30836       -1.19017       -0.37550
O          2.93804       -2.34730       -0.28435
H          0.60546        0.94740        0.25323
H          0.61677       -0.90878        0.23935
H          2.93812        2.07097       -0.26507
H          5.40785       -1.04782        0.04163
H          4.96705       -1.02619       -1.72236
