15

C          1.06933       -0.04255       -0.04145
N          2.52716       -0.07248       -0.07194
C          3.13985       -0.95089       -0.96271
O          2.57502       -1.71379       -1.73709
C          3.28245        0.74687        0.75897
C          2.77694        1.61809        1.64197
C          3.67168        2.44148        2.47918
O          3.22005        3.24104        3.28870
H          0.63120       -0.74584       -0.75467
H          0.72472        0.96428       -0.29793
H          0.72454       -0.31346        0.96178
H          4.24109       -0.90719       -0.91804
H          4.36198        0.64349        0.65477
H          1.71907        1.77853        1.80483
H          4.75448        2.29759        2.33586
