16

C          1.05047        0.11345       -0.06556
C          2.53950        0.01520        0.22896
C          3.18605       -1.18518       -0.43442
C          4.17269       -0.88685       -1.29241
C          4.21433        0.58544       -1.27672
N          4.93405        1.31296       -2.06367
N          3.34442        1.09961       -0.33971
O          2.65556        2.22803       -0.80253
H          0.51756       -0.74252        0.36483
H          0.84270        0.13257       -1.14057
H          0.62593        1.02164        0.37505
H          2.70764       -0.02831        1.31022
H          2.86487       -2.19511       -0.21973
H          4.77558       -1.53702       -1.89860
H          5.50045        0.71506       -2.67389
H          3.34038        2.66687       -1.35485
