21

C          1.08277        0.11737        0.47105
C          2.58370       -0.01219        0.17868
C          2.90841       -1.41056       -0.38509
C          2.60625       -1.28084       -1.85283
C          3.63368       -0.84429       -2.85368
C          2.72028        0.17939       -2.21908
C          3.01009        0.95541       -0.95442
N          4.42925        1.29269       -0.89740
H          0.77927       -0.59960        1.23962
H          0.47110       -0.06764       -0.41979
H          0.84719        1.12345        0.83503
H          3.12921        0.17437        1.11258
H          2.31357       -2.19758        0.08774
H          3.96798       -1.65074       -0.23389
H          1.72987       -1.82536       -2.17673
H          3.45680       -1.08600       -3.89741
H          4.68101       -0.87280       -2.58421
H          1.92832        0.61783       -2.81359
H          2.42950        1.88287       -0.92605
H          4.98192        0.43893       -0.88199
H          4.62567        1.75604       -0.01132
