19

C          0.81773       -0.06319       -0.04366
C          2.29424       -0.02369       -0.12520
C          3.19866       -0.95544        0.22265
C          4.56374       -0.38078       -0.07205
C          4.22809        0.43176       -1.31811
C          3.08743        1.17179       -0.62425
C          3.86180        1.76475        0.56862
N          4.84871        0.69322        0.91279
H          0.45572       -1.09067        0.06776
H          0.37144        0.34867       -0.95416
H          0.46516        0.52117        0.81138
H          3.00727       -1.92990        0.64368
H          5.36016       -1.11597       -0.19630
H          3.89914       -0.18055       -2.16759
H          5.04317        1.08837       -1.64739
H          2.54264        1.87606       -1.25106
H          4.41369        2.66341        0.26966
H          3.21905        2.00861        1.42057
H          4.63992        0.33737        1.84481
