20

C          1.51411        0.43377       -0.33221
C          2.86080       -0.09742        0.08556
C          3.55840        0.70835        1.16438
C          4.13613        0.66639       -0.22948
C          5.38487       -0.10324       -0.38540
C          5.50526       -1.39944       -0.05607
C          4.32283       -2.18017        0.44925
C          2.98650       -1.60855       -0.04223
H          1.45576        1.52426       -0.25062
H          0.73729        0.01358        0.31732
H          1.28476        0.15598       -1.36456
H          4.06089        0.18776        1.97099
H          3.13021        1.65395        1.48192
H          4.05475        1.55089       -0.85171
H          6.26053        0.43616       -0.73888
H          6.46536       -1.90281       -0.12243
H          4.34737       -2.19074        1.54522
H          4.40513       -3.22131        0.11781
H          2.15998       -2.10434        0.47862
H          2.88041       -1.85771       -1.10825
