15

C          1.05570       -0.08931       -0.07347
C          2.39773       -0.02324       -0.09676
C          3.08660        1.26229       -0.51297
C          4.42811        1.56846        0.12899
O          5.04130        0.82039        0.88368
N          3.19907       -1.08991        0.24128
C          2.87123       -2.41278        0.34054
O          3.66689       -3.27834        0.68820
H          0.44528        0.76511       -0.34963
H          0.50802       -0.96877        0.24919
H          2.44179        2.12580       -0.30651
H          3.25981        1.22928       -1.59632
H          4.87389        2.53128       -0.18005
H          4.18054       -0.89892        0.46053
H          1.84298       -2.66017        0.03545
