16

C          1.02677        0.06056       -0.06875
N          2.48213        0.07623       -0.07763
C          2.98898        0.82413       -1.23259
C          4.47981        0.84616       -1.20081
C          5.37095       -0.20505       -1.24388
O          6.63392        0.30018       -1.20510
C          6.44211        1.64561       -1.14509
N          5.18678        2.03168       -1.15462
H          0.67490       -0.50265        0.80116
H          0.62489       -0.42151       -0.96588
H          0.61867        1.07342        0.00809
H          2.82731       -0.88038       -0.11466
H          2.61373        1.85420       -1.21004
H          2.65648        0.36239       -2.17001
H          5.28213       -1.27977       -1.29292
H          7.33022        2.25962       -1.10091
