15

C          1.00698        0.08414        0.03268
C          2.52954        0.12591        0.00030
O          3.00942       -1.01016       -0.74030
N          3.30232       -0.58813       -2.06079
C          3.31747        0.69983       -2.04800
C          3.07876        1.32785       -0.73467
C          4.35882        1.79220       -0.10860
O          4.56529        2.96610        0.18586
H          0.66486       -0.82774        0.53396
H          0.58449        0.06194       -0.97780
H          0.59993        0.94866        0.56561
H          2.91202        0.04869        1.02436
H          3.53015        1.31096       -2.93715
H          2.37803        2.16332       -0.80634
H          5.13156        1.02177        0.06428
