21

C          1.08638        0.06788        0.05731
C          2.61736        0.05600        0.00973
C          3.08250        0.11997       -1.44676
N          3.10745        1.18219        0.82065
C          4.57458        1.23281        0.90017
C          4.99392        2.33880        1.85985
C          4.67332        3.76149        1.47734
O          5.61568        2.08919        2.89578
H          0.67499       -0.77273       -0.51157
H          0.67978        0.99241       -0.37028
H          0.72025       -0.01938        1.08572
H          2.96075       -0.88803        0.45128
H          2.83509        1.08422       -1.90390
H          2.60242       -0.66576       -2.04036
H          4.16325       -0.03211       -1.53030
H          2.73907        1.07472        1.76915
H          5.03208        1.45523       -0.06867
H          4.97763        0.28468        1.27277
H          3.97427        3.79418        0.63790
H          5.59415        4.27374        1.18905
H          4.21118        4.26594        2.33012
