16

C          0.99185        0.13139        0.14315
N          2.44530        0.19229        0.11360
C          3.03738        0.34500        1.24338
N          2.54349        0.47872        2.52007
C          3.54120        0.45674        3.44551
C          4.73822        0.39690        2.84797
C          4.59904        0.38064        1.34025
O          5.21417        1.53423        0.81933
H          0.62653       -0.15010       -0.84905
H          0.56053        1.10546        0.39473
H          0.62911       -0.62516        0.84724
H          1.57174        0.37761        2.76872
H          3.32181        0.47211        4.50423
H          5.69135        0.35370        3.35235
H          5.02825       -0.52182        0.89649
H          4.69740        2.28911        1.14870
