15

C          0.94431       -0.04541       -0.12415
C          2.46095       -0.11277       -0.02345
C          2.91381       -1.25910        0.81420
C          3.62786       -1.24213        1.93478
N          3.76841       -2.53098        2.30259
C          3.13371       -3.34109        1.39373
O          3.07341       -4.55924        1.44866
O          2.56634       -2.56349        0.39634
H          0.64277        0.82541       -0.71464
H          0.48429        0.03991        0.86604
H          0.53871       -0.93822       -0.61249
H          2.83209        0.83000        0.39597
H          2.89095       -0.20525       -1.02708
H          4.03953       -0.41606        2.49281
H          4.25001       -2.89075        3.11160
