19

C          1.08633        0.04588        0.03359
C          2.60509        0.01914       -0.03895
N          3.09658       -1.31482        0.28346
C          4.55531       -1.40151        0.15826
C          5.03785       -2.82744        0.42995
O          4.29004       -3.79034        0.61473
C          6.55389       -3.00937        0.44089
O          6.94209       -4.34809        0.70273
H          0.71677        1.05863       -0.14989
H          0.73000       -0.26833        1.02205
H          0.64260       -0.61729       -0.71720
H          3.00724        0.74727        0.67498
H          2.91969        0.32038       -1.04543
H          2.66019       -2.02350       -0.30917
H          5.03005       -0.74185        0.89191
H          4.87830       -1.12703       -0.85120
H          6.98480       -2.36741        1.21283
H          6.94919       -2.72553       -0.53821
H          6.17204       -4.77900        1.12726
