17

C          1.03780        0.00314       -0.03309
C          2.51695       -0.09528       -0.05141
C          3.41741        0.94976       -0.05450
O          4.69096        0.48795       -0.08931
C          4.62186       -0.86300       -0.11088
N          5.79290       -1.50564       -0.15604
C          3.31058       -1.28996       -0.07678
C          2.81083       -2.68654       -0.07937
H          0.70757        1.04700       -0.03042
H          0.63204       -0.48359        0.85930
H          0.61224       -0.48328       -0.91684
H          3.31448        2.02561       -0.03990
H          6.63009       -0.96686        0.03936
H          5.85360       -2.48428        0.09528
H          3.63000       -3.41223       -0.07329
H          2.20248       -2.87175       -0.97046
H          2.19270       -2.87137        0.80539
