16

O          2.71959        1.29492       -0.61591
C          2.33420        0.09251        0.06039
C          2.86908       -1.12929       -0.70323
O          2.44114       -1.05346       -2.06187
C          4.36796       -1.20020       -0.70762
C          5.06081       -2.22188       -0.18999
C          6.57972       -2.25063       -0.23962
C          7.88265       -2.27529       -0.28219
H          2.41745        2.03567       -0.06116
H          1.23908        0.07209        0.07441
H          2.70920        0.12026        1.08828
H          2.43855       -2.03974       -0.27009
H          2.58345       -0.12056       -2.31633
H          4.89481       -0.36712       -1.16723
H          4.58103       -3.08123        0.26765
H          8.94679       -2.29457       -0.32070
