16

C          0.90700       -0.07584       -0.03965
C          2.43266       -0.01265       -0.10065
N          3.00710       -1.35183        0.04208
C          2.89619        0.61701       -1.36468
C          3.66038        1.72197       -1.66518
N          3.76822        1.86588       -3.02521
C          3.08749        0.84496       -3.49453
O          2.52276        0.04049       -2.55252
H          0.56952       -0.49334        0.91551
H          0.49098       -0.69533       -0.84306
H          0.47208        0.92548       -0.13767
H          2.78419        0.59269        0.74305
H          2.74282       -1.90407       -0.77444
H          2.58927       -1.81796        0.84479
H          4.12948        2.41452       -0.98036
H          2.92031        0.57249       -4.52683
