22

C          1.08109       -0.71470       -0.72424
N          2.08152       -1.76323       -0.54972
C          3.42987       -1.19156       -0.52384
C          4.54834       -2.24504       -0.31393
C          4.61630       -3.21213       -1.51401
N          5.71905       -4.16635       -1.42665
C          5.89499       -1.53159       -0.08809
O          5.93289       -0.87115        1.17620
H          0.07890       -1.14833       -0.64876
H          1.17171       -0.23927       -1.70592
H          1.16574        0.05252        0.05247
H          1.98980       -2.43080       -1.31396
H          3.46781       -0.46276        0.29039
H          3.62188       -0.64668       -1.45608
H          4.31113       -2.81696        0.59449
H          3.68546       -3.78613       -1.57944
H          4.71706       -2.64946       -2.44876
H          5.60165       -4.89224       -2.13459
H          5.69866       -4.64080       -0.52507
H          6.10133       -0.79693       -0.87464
H          6.72381       -2.24425       -0.07366
H          5.27895       -0.15478        1.17619
