18

C          0.99379        0.04412       -0.00177
C          2.51456        0.04911        0.03702
N          3.05417       -1.23835       -0.40970
C          3.12696        1.12670       -0.81600
C          2.80501        2.64904       -0.72013
N          3.89916        2.05669       -0.09495
C          5.23077        2.31333       -0.23359
O          5.74887        3.42239       -0.23415
H          0.59339       -0.74796        0.63977
H          0.61163       -0.10476       -1.01659
H          0.59728        0.99607        0.36429
H          2.83137        0.18942        1.07952
H          2.63116       -1.49959       -1.29954
H          2.77134       -1.96290        0.24953
H          3.49798        0.79249       -1.77999
H          2.05379        3.00864       -0.02908
H          3.02001        3.27850       -1.57609
H          5.82759        1.38386       -0.26878
