14

C          1.06785       -0.04610        0.14751
C          2.55566        0.05764        0.03559
N          3.15567        1.19982       -0.04583
C          4.50751        1.21500       -0.15546
N          5.07835        2.36393       -0.16885
C          5.23337       -0.04637       -0.25837
C          4.51243       -1.15890       -0.15420
O          3.13529       -1.17919        0.01780
H          0.62192        0.94953        0.22238
H          0.80351       -0.61985        1.04027
H          0.67184       -0.54524       -0.74070
H          4.31385        3.04271       -0.07990
H          6.30437       -0.02413       -0.39816
H          4.91571       -2.16115       -0.19741
