21

C          1.06837       -0.08566       -0.09976
N          2.52368       -0.02164       -0.06855
C          2.98663        0.65924        1.14465
C          4.51722        0.67381        1.19857
C          5.01814        1.41174        2.40216
O          4.64178        0.83359        3.66278
C          6.03195        0.78509        3.32621
C          6.90271        1.61775        4.19667
H          0.74556       -0.60920       -1.00472
H          0.62373        0.91473       -0.11085
H          0.67774       -0.64180        0.75891
H          2.85699        0.47970       -0.89133
H          2.60111        0.14191        2.03161
H          2.60792        1.68820        1.17027
H          4.91932        1.16375        0.30300
H          4.89781       -0.35517        1.19310
H          4.96231        2.48790        2.30706
H          6.46245       -0.17757        3.08658
H          6.43210        2.57067        4.46052
H          7.84638        1.83275        3.68681
H          7.13071        1.08244        5.12442
