15

C          0.90104       -0.00424        0.03650
C          2.37771       -0.11403        0.03980
C          3.29005        0.92685        0.02957
O          4.56906        0.46194        0.03611
C          4.47862       -0.88897        0.05239
O          5.64455       -1.50727        0.05811
C          3.16531       -1.29242        0.05656
N          2.72693       -2.56182        0.07396
H          0.57870        1.04212        0.03461
H          0.47861       -0.48646        0.92388
H          0.48308       -0.48817       -0.85215
H          3.19016        2.00349        0.01813
H          6.27703       -0.76915        0.05501
H          3.38257       -3.33672        0.01370
H          1.75092       -2.81731       -0.01568
