15

C          1.09720       -0.08823       -0.02926
C          2.59384       -0.08816       -0.03740
C          3.26735       -0.08711       -1.36735
O          4.48660       -0.08593       -1.50805
C          3.29616       -0.08944        1.10759
N          4.66667       -0.08954        1.17533
C          5.37385       -0.09195        2.35420
O          4.90446       -0.09355        3.48440
H          0.67722       -0.08764       -1.03983
H          0.71751        0.80107        0.48506
H          0.71751       -0.97814        0.48398
H          2.59121       -0.08758       -2.23869
H          2.78419       -0.09056        2.06953
H          5.18259       -0.08802        0.29257
H          6.46158       -0.09115        2.17132
