14

C          0.96184        0.04832        0.13150
C          2.44989        0.09569        0.06170
C          3.18705        1.21542        0.06420
N          4.55552        1.26846       -0.00216
C          5.16971        0.13706       -0.07322
N          4.54417       -1.07271       -0.08370
C          3.18646       -1.18613       -0.01679
O          2.62091       -2.27328       -0.02162
H          0.52661        1.05095        0.19974
H          0.63568       -0.51597        1.01112
H          0.55116       -0.43260       -0.76234
H          2.69792        2.18546        0.12115
H          6.26777        0.07785       -0.13101
H          5.06766       -1.93300       -0.13832
