16

C          1.02978        0.11771        0.32629
C          2.49249        0.20911       -0.06736
C          3.02549       -1.06958       -0.65358
C          2.41971       -1.70602       -1.88259
N          3.58912       -0.84412       -1.99742
N          3.17646        0.46655       -2.27163
C          2.69190        1.19256       -1.19368
O          2.45259        2.38632       -1.17866
H          0.86328       -0.69953        1.03465
H          0.38542       -0.05522       -0.54339
H          0.69704        1.05237        0.79030
H          3.11278        0.51627        0.78268
H          3.62553       -1.66480        0.01984
H          1.47054       -1.35542       -2.27114
H          2.60108       -2.76292       -2.04021
H          3.48387        0.95141       -3.10655
