16

C          1.09111       -0.02969       -0.27339
N          2.47838        0.07895        0.13704
C          3.10091       -0.94745        0.76205
C          4.19241       -0.81875        1.59515
O          4.89328        0.23109        2.00300
N          4.53012       -2.06925        2.03761
C          3.68395       -2.99860        1.49318
C          2.78547       -2.32687        0.69123
H          0.79828        0.87735       -0.81147
H          0.43863       -0.12872        0.60056
H          0.92950       -0.87887       -0.94472
H          2.74440        1.03244        0.35533
H          4.50780        0.99843        1.54750
H          5.29673       -2.25613        2.66834
H          3.79550       -4.05009        1.71755
H          1.99733       -2.79334        0.11567
