23

C          0.78388        2.25240        0.43557
C          2.30051        2.37491        0.43852
C          2.97037        1.06063        0.86110
C          4.51914        1.08966        0.89428
C          5.03549       -0.30241        1.30772
N          5.03726        1.38116       -0.45425
C          5.04745        2.16655        1.88059
O          6.47789        2.17813        1.93349
H          0.33032        3.20224        0.13450
H          0.40929        1.99978        1.43264
H          0.45172        1.47989       -0.26477
H          2.57560        3.18251        1.12376
H          2.63296        2.66661       -0.56387
H          2.63717        0.26514        0.18003
H          2.59942        0.78268        1.85670
H          4.66189       -1.08366        0.63502
H          4.70588       -0.55525        2.32190
H          6.12986       -0.35780        1.29019
H          4.97545        0.55675       -1.04815
H          6.03125        1.61072       -0.37003
H          4.66710        1.99855        2.89485
H          4.74276        3.17149        1.57328
H          6.75319        1.42745        2.48463
