21

C          0.71136        0.46655        1.70122
N          2.15746        0.54781        1.86419
C          2.81415       -0.58915        1.22611
C          4.31820       -0.53238        1.43326
C          4.77213       -0.59990        2.87205
C          5.16361       -1.25574        0.40135
C          5.15820        0.24571        0.43794
O          6.35728        0.86867        0.92631
H          0.23753        1.31500        2.20474
H          0.30791       -0.45141        2.14202
H          0.42899        0.51003        0.64453
H          2.37407        0.54906        2.85937
H          2.58409       -0.58320        0.15294
H          2.43966       -1.53480        1.63670
H          4.21850       -1.37423        3.41416
H          4.60604        0.35936        3.37309
H          5.83687       -0.83871        2.96017
H          4.66832       -1.73421       -0.43761
H          6.04543       -1.78958        0.73209
H          4.63073        0.76812       -0.35636
H          7.00345        0.22374        1.25809
