14

C          1.12539        0.06628       -0.05120
C          2.61165        0.14010        0.01295
N          3.43395       -0.54918       -0.97300
C          3.37973        0.92377       -1.02777
C          4.63618        1.62321       -0.64946
O          4.84744        2.01096        0.49490
C          5.57080        1.88605       -1.72731
N          6.28315        2.10632       -2.61946
H          0.74989       -0.64110        0.69507
H          0.76469       -0.25524       -1.03414
H          0.69183        1.04791        0.16516
H          2.98092        0.14699        1.03369
H          2.85910       -0.96802       -1.70774
H          2.83370        1.34639       -1.86395
