17

C          1.03371       -0.18470        0.14198
C          2.52257        0.00348       -0.03780
C          3.19955        1.09402        0.80199
C          4.22124       -0.00932        1.14427
C          5.52866       -0.06942        0.36043
C          6.33684        1.12592        0.62101
N          6.95421        2.08858        0.81482
O          3.28807       -1.02423        0.65733
H          0.48734        0.63766       -0.33190
H          0.75142       -0.21533        1.19897
H          0.70349       -1.11744       -0.32579
H          2.80485        0.02640       -1.09754
H          2.62463        1.44139        1.66483
H          3.57263        1.95190        0.23718
H          4.37866       -0.12137        2.22506
H          5.33410       -0.14995       -0.71474
H          6.08929       -0.96575        0.64951
