17

C          1.14155       -0.02728        0.01912
C          2.65618       -0.02870       -0.05794
O          3.17167        0.07656        1.27143
C          4.54719        0.12565        1.45858
N          5.37895        0.13369        0.36924
C          4.93362        0.19531        2.73616
C          6.32928        0.25007        3.20205
O          6.60253        0.32655        4.39070
H          0.70556       -0.10949       -0.97984
H          0.77767        0.89272        0.48901
H          0.78317       -0.86175        0.63098
H          2.98810        0.82402       -0.65724
H          2.99342       -0.96486       -0.51214
H          5.00896       -0.15252       -0.52699
H          6.36491       -0.04597        0.49938
H          4.19582        0.22577        3.53059
H          7.11381        0.20153        2.42939
