16

C          1.06305       -0.04910       -0.15649
C          2.58379       -0.05462       -0.05430
O          3.11732       -0.29484       -1.35910
C          3.09046        1.28737        0.44847
C          3.52507        2.43852        0.87973
C          3.07115       -1.19277        0.89125
N          2.72134       -1.24042        2.21096
N          3.82423       -2.15218        0.43542
H          0.72065        0.71099       -0.86885
H          0.58433        0.15267        0.80767
H          0.69494       -1.01407       -0.52351
H          3.07792        0.55261       -1.83443
H          3.89084        3.37370        1.23725
H          1.84376       -0.82884        2.49408
H          2.92294       -2.14349        2.62797
H          3.98735       -1.94309       -0.56462
