17

C          1.49142        0.35380        0.55560
C          2.78534       -0.13452       -0.00729
N          3.49871        0.76766       -0.94068
C          4.15055        0.45902        0.31984
C          5.07350       -0.68694        0.32374
C          4.47271       -1.86589        0.08962
C          2.99022       -1.64977       -0.09646
O          2.60443       -2.11076       -1.37710
H          1.45990        1.44514        0.64473
H          1.30713       -0.07220        1.54570
H          0.66906        0.05142       -0.10351
H          3.11941        1.71506       -0.90630
H          4.23772        1.21137        1.09043
H          6.14165       -0.56329        0.44857
H          4.96081       -2.82447       -0.00331
H          2.43034       -2.18468        0.67798
H          2.97338       -1.44995       -1.99189
