17

C          0.95556        0.02110       -0.00870
C          2.29863        0.03437       -0.01493
C          3.12865       -1.22169       -0.01509
N          4.00430       -1.25249       -1.18545
C          4.89704       -0.08470       -1.23181
C          4.09693        1.20952       -1.18039
O          4.32955        2.15405       -1.93508
C          3.09089        1.31439       -0.05175
H          0.39511       -0.90943        0.00555
H          0.37703        0.94083       -0.02040
H          2.49360       -2.11482       -0.03307
H          3.72167       -1.28031        0.90557
H          3.42749       -1.26738       -2.02784
H          5.47192       -0.11050       -2.16277
H          5.60460       -0.09701       -0.39582
H          2.45114        2.18622       -0.22442
H          3.63514        1.46020        0.88709
