16

O          3.24851        0.81478       -2.52014
C          2.47896        0.01287       -1.75511
O          1.27320       -0.08014       -1.94743
C          3.18295       -0.74781       -0.63844
C          4.68935       -0.60009       -0.53786
C          5.23920        0.28075        0.31629
C          5.55541       -1.46540       -1.32155
C          5.21745       -2.11082       -2.44454
H          4.19699        0.80316       -2.28744
H          2.92487       -1.80835       -0.74272
H          2.72454       -0.40718        0.30057
H          4.62821        0.93239        0.93547
H          6.31544        0.38990        0.42221
H          6.57637       -1.58951       -0.95742
H          4.24000       -2.03640       -2.90925
H          5.94547       -2.73917       -2.95113
