15

C          1.04235        0.13349        0.00225
C          2.51881        0.00380       -0.10016
C          3.24611       -1.10502       -0.00934
C          4.66909       -0.76022       -0.20526
C          4.52637        0.71546       -0.48383
O          3.23963        1.16676       -0.35468
N          5.47010        1.53697       -0.82338
O          6.69970        0.87157       -0.92625
H          0.55217       -0.84538        0.01808
H          0.64979        0.69048       -0.85528
H          0.76911        0.66929        0.91620
H          2.86948       -2.09991        0.16801
H          5.09835       -1.27921       -1.06668
H          5.26012       -0.92911        0.69625
H          7.28953        1.57912       -1.24951
