16

C          1.01362        0.31997       -0.57003
N          2.43802        0.10543       -0.32310
C          2.86864        0.71436        0.94818
C          2.92671        2.20264        1.14722
O          2.91070        3.07045       -0.01261
N          4.19134        2.95554       -0.64486
C          4.88369        2.04411       -0.04683
C          4.19750        1.41413        1.07897
H          0.67596       -0.34023       -1.37400
H          0.82325        1.35363       -0.87783
H          0.41157        0.10174        0.31793
H          2.94663        0.51440       -1.10975
H          2.56105        0.13399        1.81679
H          2.61485        2.61092        2.09834
H          5.90572        1.75690       -0.33137
H          4.76360        1.27825        1.99009
