21

C          2.79197        1.38992        0.60139
C          2.48190        0.02698       -0.00113
C          3.09315       -1.08007        0.80599
C          2.95721       -2.53422        0.42924
N          2.17597       -2.94630       -0.73983
C          4.28058       -1.83100        0.25920
O          5.29473       -2.16912        1.22775
C          6.49519       -1.43289        1.03803
H          2.38456        2.18761       -0.02709
H          3.87178        1.54253        0.69917
H          2.34891        1.48342        1.59859
H          2.84805        0.00607       -1.03490
H          1.39534       -0.10541       -0.03752
H          3.06252       -0.87349        1.87145
H          2.90563       -3.24273        1.25428
H          2.22889       -2.26389       -1.49292
H          1.18928       -3.02559       -0.49608
H          4.59580       -1.65009       -0.76406
H          7.21574       -1.73871        1.80087
H          6.30274       -0.36072        1.14109
H          6.91748       -1.64546        0.05104
