21

C          0.87813        0.11942        0.06009
N          2.33662        0.10881        0.00740
C          2.87820       -0.83974       -0.98133
C          2.43358       -0.49773       -2.40967
C          4.40687       -0.78908       -0.93756
C          5.11899       -1.26782        0.33830
O          6.02954       -2.08414       -0.44251
C          5.14923       -1.96836       -1.59001
H          0.55375        0.73849        0.90297
H          0.47038       -0.88568        0.20792
H          0.44353        0.56042       -0.84151
H          2.67654       -0.14564        0.93565
H          2.53583       -1.85252       -0.73277
H          2.69864        0.53339       -2.67257
H          1.35393       -0.61782       -2.54105
H          2.92144       -1.15361       -3.13909
H          4.79983        0.18057       -1.27550
H          4.53198       -1.88650        1.02397
H          5.64420       -0.48807        0.89691
H          4.57557       -2.89063       -1.72965
H          5.69523       -1.72926       -2.50601
