17

C          0.73851       -0.12205       -0.50709
C          1.92614       -0.08021        0.10938
C          2.04583        0.02636        1.54354
C          3.18610        0.03373        2.25225
C          4.59457       -0.03384        1.75964
N          4.99038       -1.41889        1.78531
C          6.29368       -1.79419        1.96308
O          7.23217       -1.04318        2.18183
H          0.67804       -0.20336       -1.58804
H         -0.19936       -0.07790        0.03800
H          2.82874       -0.13062       -0.49367
H          1.11078        0.09258        2.10007
H          3.09727        0.11198        3.33515
H          5.25059        0.56328        2.40320
H          4.71034        0.33779        0.73728
H          4.32196       -2.11362        1.47884
H          6.41922       -2.88741        1.88452
