17

C          1.00808       -0.06706        0.24191
C          2.51828       -0.01649        0.06658
C          2.99017        1.13127       -0.84181
O          2.47707        2.36804       -0.30475
C          2.81100        3.47247       -1.03944
C          3.06093        4.64540       -0.45809
C          4.51017        1.13127       -0.84181
N          5.77114        1.13127       -0.84181
H          0.72871       -0.95880        0.81246
H          0.49893       -0.10675       -0.72513
H          0.64404        0.80553        0.79296
H          2.86902       -0.97412       -0.33705
H          2.96633        0.09069        1.06428
H          2.60688        0.98148       -1.85902
H          2.85438        3.32894       -2.11174
H          3.00956        4.75834        0.62087
H          3.33973        5.51541       -1.04529
