16

C          2.30387        0.52351        1.33279
C          2.64335        0.04324       -0.05389
O          2.36552       -1.09677       -0.42685
C          3.38587        0.99832       -0.94703
C          4.86432        0.83362       -0.81609
N          5.54285        1.60937       -0.03373
N          6.88846        1.26391       -0.05644
C          7.56079        1.97786        0.78239
H          1.75448       -0.25519        1.86869
H          1.67267        1.41355        1.26601
H          3.22110        0.75205        1.88043
H          3.09239        2.02468       -0.70494
H          3.09906        0.80676       -1.98598
H          5.33359        0.00570       -1.37818
H          8.64729        1.83258        0.87735
H          7.09952        2.74657        1.42611
