21

C          1.10562        1.69689        1.23428
C          2.60196        1.46497        1.28219
O          3.01019        0.80512        0.08254
C          4.44806        0.64915       -0.03848
C          5.04985       -0.33195        0.91986
C          4.96354        0.62797       -1.45295
C          5.18941        1.84621       -0.60555
N          6.55101        2.19170       -0.19517
H          0.74658        2.09340        2.18875
H          0.57430        0.76560        1.01400
H          0.85152        2.40752        0.44180
H          2.83963        0.83453        2.14393
H          3.12761        2.42149        1.38218
H          4.96778        0.02667        1.94981
H          6.10930       -0.51698        0.71748
H          4.52824       -1.29215        0.84736
H          5.81709        0.00521       -1.69201
H          4.24095        0.69660       -2.25717
H          4.58894        2.70934       -0.89181
H          6.90204        1.56274        0.52358
H          6.57329        3.12305        0.22093
