13

C          0.94810        0.01453       -0.08423
C          2.46810        0.01453       -0.08423
C          3.77195        0.01453       -0.08423
C          5.20705       -0.03471       -0.08044
N          5.91856        1.04419       -0.16391
O          5.14209        2.21141       -0.25368
C          5.98821       -1.23529        0.01201
C          6.63169       -2.24736        0.08998
H          0.57497       -0.07981        0.93935
H          0.57496       -0.82472       -0.67775
H          0.57503        0.94818       -0.51429
H          5.81998        2.91023       -0.30749
H          7.20303       -3.14373        0.15909
