15

C          3.53913       -1.35940        0.23203
C          3.33787       -0.54546        1.27905
C          4.17055        0.65304        1.66584
O          5.09500        1.04316        0.64117
N          4.42342        1.76186       -0.36471
C          5.21417        1.86224       -1.37849
C          5.08049        0.36332        2.85092
O          5.09874       -0.67046        3.51802
H          2.87206       -2.19025        0.03352
H          4.37559       -1.21559       -0.44616
H          2.48770       -0.74556        1.92841
H          3.52944        1.50036        1.93730
H          4.87477        2.36470       -2.29751
H          6.23863        1.45296       -1.37905
H          5.74458        1.19909        3.12773
