16

C          1.82913       -0.55024        1.16443
N          2.40208        0.04831       -0.04110
N          2.97557        1.31494        0.22962
C          2.11511        2.46953        0.41519
C          4.36138        1.49744        0.23020
O          4.92929        2.57708        0.34738
C          5.19372        0.24284        0.03922
O          5.98247       -0.14234        0.88868
H          1.42987       -1.53999        0.92271
H          1.00768        0.05462        1.56208
H          2.58784       -0.67626        1.94351
H          1.66738        0.15837       -0.74544
H          1.06156        2.19754        0.30681
H          2.37393        3.23405       -0.32334
H          2.28884        2.87520        1.41690
H          5.02953       -0.26494       -0.92341
