19

C          0.97312        0.66585        0.13647
C          2.38892        0.25329       -0.13851
C          2.70372       -0.00423       -1.58942
O          4.10165       -0.05286       -1.85400
O          3.39727        1.03107        0.53522
C          3.17230       -0.29257        1.05286
C          4.30995       -1.25383        0.96380
N          5.43892       -0.75789        1.74465
H          0.66705        1.48913       -0.51650
H          0.83117        0.98912        1.17315
H          0.30411       -0.18152       -0.04302
H          2.29303        0.80044       -2.20888
H          2.25700       -0.94626       -1.91384
H          4.49318        0.66935       -1.33298
H          2.67501       -0.35671        2.01456
H          3.99161       -2.21630        1.37683
H          4.63844       -1.45139       -0.05527
H          5.16158       -0.64636        2.71781
H          5.67146        0.17791        1.41149
