19

C          0.86599       -0.78429       -0.22995
C          2.17248       -0.03681        0.06617
N          2.26520        1.14023       -0.79153
C          2.21521        0.40083        1.50256
C          3.28952        0.47036        2.30321
C          4.69538        0.18557        2.00098
C          5.46364        1.07673        1.05997
O          5.73328        1.06952        2.46504
H          0.81487       -1.08980       -1.28058
H         -0.01428       -0.16148       -0.02289
H          0.78495       -1.68865        0.38357
H          3.01066       -0.70485       -0.15905
H          1.51647        1.79062       -0.55662
H          2.10211        0.86937       -1.75947
H          1.26156        0.69808        1.93443
H          3.11876        0.81490        3.32379
H          4.94402       -0.87152        2.01004
H          4.97124        1.94487        0.63985
H          6.21015        0.62896        0.41580
