15

C          1.04620       -0.07440       -0.04680
C          2.54059       -0.10205       -0.06871
C          3.24424       -1.01319       -0.75934
C          4.74517       -1.06522       -0.80227
C          5.27485       -2.38529       -0.26850
O          4.70208       -3.46534       -0.37815
C          6.59266       -2.30919        0.33550
N          7.65042       -2.20625        0.80719
H          0.69867        0.74976        0.58451
H          0.64347       -1.00448        0.36572
H          0.64421        0.08270       -1.05241
H          3.04900        0.66640        0.50960
H          2.71492       -1.77454       -1.33301
H          5.17415       -0.24021       -0.22145
H          5.08605       -0.95825       -1.83792
