12

O          1.58029       -0.89410       -0.30128
C          2.30497        0.06966       -0.06799
C          3.07493        0.79507       -1.13430
C          4.53464        0.65509       -0.89338
N          5.26443        1.74585       -0.62884
S          6.83568        1.19114       -0.44630
N          6.59291       -0.44861       -0.68062
C          5.28653       -0.56701       -0.92007
H          2.41783        0.45659        0.95944
H          2.76067        1.84433       -1.11841
H          2.81241        0.38231       -2.11332
H          4.89529       -1.55884       -1.10886
