14

O          0.84053       -0.06177        0.23492
S          2.24531       -0.06150       -0.11609
O          2.71047       -0.06155       -1.48601
C          3.16223        1.05423        0.89941
C          4.18832       -0.06115        1.22297
C          3.16257       -1.17667        0.89961
C          5.38465       -0.06090        0.39753
C          6.35815       -0.06072       -0.30429
H          2.58171        1.39167        1.76503
H          3.54239        1.93008        0.36600
H          4.46461       -0.06105        2.28607
H          2.58219       -1.51442        1.76516
H          3.54308       -2.05277        0.36617
H          7.21062       -0.06057       -0.94524
