14

C          1.95914       -1.04660        0.51646
N          2.36952        0.15029        0.25372
N          2.73463        0.83801        1.36544
C          2.59017        2.29883        1.27159
S          4.30066        2.56206        1.55682
O          4.54834        3.18944        2.84255
O          5.01287        2.96765        0.35850
C          4.16807        0.81889        1.69814
H          1.63991       -1.70336       -0.30882
H          1.90430       -1.46705        1.53610
H          1.95896        2.72866        2.05607
H          2.25227        2.68307        0.30288
H          4.37704        0.45742        2.71021
H          4.81163        0.27979        0.99498
