16

C          1.91041        1.04341        0.63371
O          2.29388       -0.13394       -0.07773
C          3.08612        0.04863       -1.16135
N          3.46042        1.21906       -1.59113
N          4.31970        1.25406       -2.63730
C          4.29805        0.16759       -3.60285
C          4.18798       -1.17358       -2.89075
O          3.38708       -1.15408       -1.70361
H          1.56736        0.74133        1.62717
H          1.08120        1.52972        0.11207
H          2.74748        1.73654        0.76473
H          4.26780        2.16020       -3.10794
H          5.21033        0.18898       -4.20631
H          3.45153        0.30026       -4.28402
H          5.17706       -1.56633       -2.62148
H          3.72316       -1.90048       -3.57044
