18

C          1.02375        0.06113        0.02052
C          2.51196        0.00387       -0.05265
C          3.24088       -1.11342       -0.18907
C          4.70196       -0.78541       -0.21183
C          4.71644        0.75274       -0.27562
N          3.32734        1.13519        0.00088
C          2.94838        2.42952        0.24500
N          3.67453        3.49438        0.28584
H          0.57907       -0.93588       -0.07258
H          0.62477        0.67793       -0.79026
H          0.69776        0.48238        0.97627
H          2.84397       -2.11793       -0.24660
H          5.20979       -1.22603       -1.07513
H          5.18483       -1.14519        0.70326
H          5.00272        1.09118       -1.27806
H          5.41955        1.16818        0.45509
H          1.86842        2.54114        0.43827
H          4.64951        3.26282        0.09977
