15

O          0.97774        0.11086       -0.06114
C          2.40657       -0.07670       -0.08671
C          3.20307        0.75452       -1.14563
C          4.35228        0.57538       -0.11224
C          3.23825        0.73204        0.96259
O          5.00885       -0.72751       -0.13724
N          4.12932       -1.86030       -0.13424
C          2.86543       -1.57044       -0.10991
H          0.83682        1.07333       -0.05651
H          2.85889        1.78279       -1.30248
H          3.36215        0.27546       -2.11561
H          5.10007        1.37348       -0.11625
H          2.89979        1.75655        1.15287
H          3.42967        0.23238        1.91622
H          2.09655       -2.35804       -0.10501
