16

C          3.08719        0.99364       -0.55771
O          2.23236        0.03002        0.04417
N          2.76903       -0.39106        1.27475
C          3.15340        0.42288        2.30796
C          3.49513       -0.38009        3.37176
C          3.27241       -1.72713        2.97776
C          2.83027       -1.71077        1.67050
N          2.49251       -2.72768        0.85524
H          2.79865        1.09622       -1.60792
H          4.14083        0.69562       -0.51745
H          2.94727        1.96935       -0.08101
H          3.15098        1.49722        2.20409
H          3.84688       -0.03893        4.33577
H          3.41572       -2.60852        3.58557
H          2.43022       -3.68636        1.18114
H          2.08063       -2.55302       -0.05987
