15

O          0.93910       -0.09028       -0.02784
C          2.38435       -0.10152       -0.05669
C          3.14389        0.89658        0.88041
C          2.85130       -0.13488        2.00984
C          3.09648       -1.15349        0.85448
C          4.60558       -1.23301        0.50427
N          5.29448       -0.14416        0.36225
O          4.55882        1.07220        0.56329
H          0.68385        0.67749       -0.56946
H          2.73115       -0.09907       -1.09631
H          2.66048        1.86829        1.01540
H          1.83631       -0.11542        2.42136
H          3.56923       -0.15952        2.83417
H          2.60499       -2.12272        0.95911
H          5.06830       -2.22362        0.37803
