18

N          1.02162        0.00788       -0.21416
C          2.34383        0.14720        0.04496
N          2.88686        1.26477        0.37353
C          3.22360       -1.11986       -0.08531
C          3.99567       -1.57173        1.18739
C          3.82322       -3.02671        0.70682
O          4.90554       -3.58658       -0.06403
C          2.59363       -2.53823       -0.09031
H          0.50181        0.85220       -0.41752
H          0.72849       -0.78534       -0.77310
H          2.17679        1.99595        0.43066
H          3.90686       -0.99835       -0.94034
H          3.48177       -1.35844        2.13119
H          5.02575       -1.21249        1.25820
H          3.56419       -3.72307        1.51169
H          5.23660       -2.86427       -0.62528
H          1.65419       -2.63657        0.46561
H          2.46492       -2.98584       -1.08010
