19

O          2.77568       -1.39447        0.32755
C          2.34860       -0.08486       -0.01839
C          2.87209        0.91609        1.00415
C          4.40200        0.96374        1.03970
C          4.89763        1.97126        2.07160
C          6.40043        1.99623        2.08751
N          7.04662        3.07961        1.80403
O          8.41917        2.82680        1.90675
H          2.42739       -1.99679       -0.35226
H          1.25423       -0.07078       -0.03024
H          2.71457        0.15291       -1.02229
H          2.50400        0.63928        1.99959
H          2.47633        1.91070        0.76813
H          4.78827        1.22929        0.04763
H          4.80584       -0.02832        1.27641
H          4.55981        1.68587        3.07378
H          4.51543        2.97368        1.85032
H          6.91894        1.05890        2.35829
H          8.80749        3.69706        1.69874
