18

C          1.08433        0.10800        0.15196
C          2.59594        0.03526       -0.03950
C          2.94260       -0.27067       -1.50561
O          4.35537       -0.35924       -1.67609
N          3.22435        1.29433        0.37751
C          3.61703        1.67320        1.61352
N          3.51268        0.78824        2.61985
S          4.25384        3.18202        1.86926
H          0.61056       -0.84094       -0.11877
H          0.64632        0.89752       -0.46807
H          0.82827        0.32921        1.19311
H          3.00598       -0.76605        0.58573
H          2.57162        0.51280       -2.17506
H          2.50668       -1.22424       -1.81695
H          4.74670        0.37679       -1.16910
H          3.24535        2.04989       -0.29850
H          2.91963       -0.02522        2.56267
H          3.75917        1.10442        3.54995
