19

C          1.13261       -0.11304        0.02733
C          2.64926       -0.12267       -0.00854
C          3.34694        0.95769        0.85364
C          4.33940       -0.16610        1.20284
N          3.24983       -1.13289        0.91516
C          3.77313       -2.28661        0.17935
C          2.63491       -3.25093       -0.11208
C          1.65855       -4.07813       -0.36207
H          0.74684        0.76876       -0.49368
H          0.74404       -0.09423        1.05136
H          0.72175       -0.99430       -0.47545
H          3.03300       -0.14298       -1.03854
H          2.76263        1.31739        1.70993
H          3.75999        1.81274        0.31401
H          4.69151       -0.17031        2.23875
H          5.20767       -0.20751        0.53354
H          4.50403       -2.81588        0.80267
H          4.27385       -2.01686       -0.75873
H          0.85564       -4.74991       -0.55912
