19

O          2.74892       -0.15119       -1.32036
C          2.33217        0.01761        0.03484
C          2.84295        1.35635        0.57904
N          4.31438        1.37566        0.59499
C          4.80930        2.68072        1.04125
C          6.33282        2.69234        1.03837
C          6.88009        4.00630        1.53498
O          6.19599        4.96552        1.87788
H          2.44603       -1.03407       -1.59389
H          2.71435       -0.81940        0.62897
H          1.23808       -0.00245        0.06058
H          2.45396        1.50620        1.59182
H          2.47387        2.16343       -0.06521
H          4.62397        1.18289       -0.36183
H          4.44605        2.88470        2.05605
H          4.43270        3.47731        0.38785
H          6.72242        2.53206        0.02689
H          6.72949        1.90403        1.68808
H          7.98162        4.06700        1.57040
