14

N          1.22028       -0.54757       -0.98516
C          2.46191       -0.32645       -1.24843
N          3.12713        0.76465       -0.79378
C          4.47193        0.87566       -0.81327
C          5.39969        0.15643       -1.53331
O          6.66039        0.56338       -1.22629
C          6.53826        1.55539       -0.30793
C          5.21096        1.80167       -0.03907
H          0.93679       -1.43701       -1.41272
H          3.04798       -1.03702       -1.85483
H          2.55575        1.36118       -0.20421
H          5.34298       -0.63766       -2.26326
H          7.46649        1.98152        0.04795
H          4.83300        2.54093        0.65366
