10

O         -1.05685       -1.43882       -0.00090
C         -1.98933       -0.42035        0.00325
N         -1.50209        0.81412        0.00689
C         -0.17036        0.57509        0.00497
C          0.09438       -0.73936        0.00042
S          1.72829       -1.03927       -0.00196
N          2.14954        0.61092        0.00312
C          1.01045        1.33070        0.00645
H         -3.02691       -0.72661        0.00312
H          1.09380        2.40844        0.00993
