19

N          2.95646       -0.56382        1.10979
C          2.30377        0.05142       -0.03651
C          2.82113       -0.52490       -1.32571
C          3.47479        0.22118       -2.22143
O          4.00038       -0.20280       -3.40206
C          3.49249       -1.43423       -3.90699
C          3.17286       -2.50748       -2.87653
C          2.58912       -1.98806       -1.56692
H          2.63212       -0.10943        1.96067
H          3.95716       -0.37667        1.05402
H          2.46485        1.13511        0.00135
H          1.22309       -0.11212        0.02855
H          3.70332        1.27795       -2.07160
H          4.24808       -1.82946       -4.60020
H          2.60539       -1.21113       -4.51546
H          4.09389       -3.06013       -2.64947
H          2.49150       -3.24402       -3.31828
H          3.03427       -2.57073       -0.74953
H          1.51372       -2.18851       -1.54068
