16

O          1.23896       -0.19125        0.47033
N          2.46006       -0.25388       -0.20763
C          3.26375       -1.24368        0.30647
N          4.45044       -0.98271        0.76463
C          4.56961        0.50368        0.65702
C          3.27942        0.95138       -0.00315
C          3.33112        2.01693       -1.07642
C          2.72062        2.32940        0.25537
H          0.66109       -0.74134       -0.08831
H          2.82926       -2.25570        0.28935
H          5.45001        0.75603        0.05811
H          4.67228        0.92755        1.66160
H          2.66625        1.91449       -1.92646
H          4.28851        2.46389       -1.31666
H          1.64461        2.44638        0.30571
H          3.26496        2.98830        0.92180
