15

C          1.05995        0.14002       -0.01619
C          2.55015        0.07829       -0.01692
C          3.36939        1.19540       -0.01420
S          4.99880        0.70100       -0.01517
N          4.68383       -0.91656       -0.01811
C          3.36381       -1.12474       -0.01847
C          2.80608       -2.45404       -0.02069
C          3.51640       -3.59309       -0.02334
H          0.70559        1.17654       -0.01248
H          0.65432       -0.35436        0.87233
H          0.65450       -0.34829       -0.90796
H          3.09603        2.24082       -0.01214
H          1.72362       -2.54453       -0.02059
H          4.60317       -3.58350       -0.02382
H          3.02479       -4.55915       -0.02509
