21

N          2.85367        0.74137       -1.29657
C          2.41447        0.02878       -0.09314
C          2.90797        0.72315        1.18119
O          4.34068        0.68930        1.21605
C          4.84724        1.32387        2.38921
C          6.36826        1.30665        2.35381
C          6.92653       -0.10937        2.31258
O          8.34836       -0.06242        2.33622
H          2.67266        0.16225       -2.11470
H          3.86969        0.84456       -1.23700
H          2.81139       -0.99161       -0.13039
H          1.32160       -0.02493       -0.08834
H          2.51506        0.19381        2.05690
H          2.56111        1.76296        1.20950
H          4.48157        0.79850        3.27896
H          4.49707        2.36184        2.42398
H          6.76793        1.83514        3.22731
H          6.72682        1.85143        1.47170
H          6.61510       -0.64519        1.41009
H          6.59594       -0.68363        3.18365
H          8.63472        0.37817        1.51614
