20

C          0.98267        0.44830       -0.96764
O          2.40373        0.42419       -0.96184
C          2.93889        1.31511        0.01552
C          4.43102        1.26905       -0.05420
C          5.21860        1.75186       -1.24829
N          4.54801        2.25756       -2.44839
C          5.22234        2.55026        0.03394
N          6.42543        2.60443        0.86477
H          0.62989       -0.22952       -1.74943
H          0.61533        1.45545       -1.18897
H          0.59136        0.10750       -0.00458
H          2.61348        0.99648        1.01298
H          2.56030        2.32832       -0.16268
H          4.81053        0.37911        0.43538
H          6.12404        1.19214       -1.47566
H          3.76218        2.85968       -2.21135
H          4.13219        1.47094       -2.95133
H          4.67018        3.48772        0.01511
H          6.96659        1.74303        0.80194
H          6.18828        2.72703        1.84785
