15

N          0.96783        0.06983       -0.12940
C          2.32258       -0.05879       -0.05235
C          3.11051       -1.14545        0.00779
C          4.55494       -0.75892        0.08226
C          4.46530        0.73943        0.06480
C          3.17906        1.11200       -0.01538
C          2.68545       -2.54544       -0.00503
O          3.48230       -3.47134        0.08332
H          0.43634       -0.73300        0.19107
H          0.61621        0.94391        0.25356
H          5.11598       -1.12500       -0.78323
H          5.02266       -1.11165        1.00630
H          5.31439        1.40506        0.10273
H          2.82160        2.12982       -0.05560
H          1.60079       -2.72100       -0.08944
