15

C          1.01091        0.33038       -0.10149
C          2.47662       -0.07118       -0.03530
C          2.93424       -0.75148       -1.28054
C          3.49135       -0.14760       -2.39209
O          3.78855       -1.06408       -3.34814
C          3.42324       -2.27493       -2.85544
C          2.89608       -2.13937       -1.59385
Cl         2.30670       -3.38116       -0.59923
H          0.71129        0.82815        0.82609
H          0.36570       -0.54324       -0.24288
H          0.82745        1.02043       -0.93224
H          2.63636       -0.72483        0.83007
H          3.08652        0.82385        0.13812
H          3.72731        0.87761       -2.64377
H          3.59691       -3.11877       -3.50755
