16

C          1.14153       -0.03191       -0.02430
C          2.62820        0.07527       -0.08738
C          3.32122        1.01840        0.55755
O          4.68477        1.12250        0.44293
S          5.44437        2.51911        0.83279
C          7.10320        1.93808        0.57989
O          5.15048        3.51377       -0.17665
O          5.26338        2.78704        2.24576
H          0.80813       -0.90976       -0.58719
H          0.67101        0.84886       -0.47258
H          0.79570       -0.14372        1.00767
H          3.15294       -0.63483       -0.72113
H          2.87108        1.77269        1.19254
H          7.20592        1.60016       -0.45317
H          7.30349        1.12276        1.27742
H          7.78623        2.76907        0.76924
