17

C          1.66974        0.48292        0.82171
O          2.57383       -0.13069       -0.08998
C          3.10403        0.67989       -1.00602
C          3.01273        2.03122       -1.27444
C          3.83541        2.32035       -2.40013
C          4.04423        3.64759       -3.03223
C          4.40024        1.12195       -2.78765
N          3.95295        0.14368       -1.93937
H          1.35840       -0.27104        1.55054
H          0.77711        0.84156        0.29795
H          2.15135        1.30207        1.36700
H          2.42145        2.74729       -0.71934
H          3.52278        4.43518       -2.47847
H          3.66497        3.64536       -4.05876
H          5.10929        3.89793       -3.05489
H          5.08281        0.88178       -3.59184
H          4.20059       -0.83453       -1.97849
