10

Cl         0.90460       -0.10535       -0.05196
C          2.58674        0.06685       -0.05013
C          3.34946        1.20320       -0.04764
O          4.66782        0.87321       -0.04694
N          4.79008       -0.51461       -0.04902
C          3.53319       -0.97304       -0.05091
C          3.02361        2.57916       -0.04580
C          2.73361        3.74429       -0.04429
H          3.36748       -2.04092       -0.05276
H          2.47069        4.77649       -0.04298
