14

C          1.05260       -0.03850        0.06619
C          2.51455        0.15634        0.06476
C          3.32593        1.27275        0.07682
C          4.65599        0.79051        0.06096
Cl         6.04978        1.75893        0.06926
C          4.57479       -0.58543        0.03138
N          5.48515       -1.56580       -0.00807
O          3.27438       -0.97612        0.04255
H          0.52789        0.92201        0.06722
H          0.74243       -0.59740        0.95347
H          0.73956       -0.59617       -0.82169
H          2.99866        2.30112        0.09249
H          6.46941       -1.37677        0.14576
H          5.19071       -2.52541        0.13269
