11

O          2.25256       -0.63955       -1.01543
C          3.03426       -0.71189       -0.09075
N          2.86622       -0.53850        1.23174
C          4.20572       -0.61580        1.32532
C          5.15305        0.01337        2.05992
S          6.61932       -0.31458        1.26614
C          5.76393       -1.21461        0.05655
C          4.42168       -0.98067       -0.05102
H          2.27556       -1.25954        1.62881
H          5.01984        0.69194        2.88832
H          6.38524       -1.75944       -0.64273
