14

N          1.12129        0.04274        0.26604
C          2.49363        0.10809        0.09177
C          3.20650        1.24299       -0.00090
C          4.64092        1.23198       -0.17574
C          5.29839        0.06921       -0.25439
N          4.61477       -1.11496       -0.18193
C          3.25090       -1.20668       -0.03041
O          2.66101       -2.28514       -0.01930
H          0.62002        0.80408       -0.17855
H          0.77203       -0.88037       -0.00331
H          2.72164        2.20996        0.07898
H          5.16456        2.18055       -0.23197
H          6.37436        0.00992       -0.38022
H          5.10628       -1.99659       -0.25472
