20

C          0.96422       -0.28289        0.59040
C          2.25467       -0.15109        0.26133
C          3.25150       -1.27619        0.20172
C          4.17867       -0.86632       -0.94142
C          5.54060       -0.19420       -0.60506
C          5.17933        0.91905       -1.60743
C          3.69879        0.52032       -1.44343
C          2.86907        1.09715       -0.30120
H          0.55553       -1.23760        0.90733
H          0.27834        0.55711        0.52884
H          2.76470       -2.23392       -0.01235
H          3.79918       -1.35945        1.14685
H          4.25726       -1.61770       -1.73637
H          6.42887       -0.77817       -0.86039
H          5.63809        0.16213        0.42699
H          5.43993        1.93771       -1.31100
H          5.56201        0.73561       -2.61908
H          3.13661        0.47979       -2.38383
H          2.13492        1.82389       -0.65885
H          3.49648        1.57320        0.46102
