16

N          1.03989        0.18277       -0.01259
C          2.50391        0.13291        0.00388
C          3.23013       -0.62377       -1.06926
C          3.28204        0.88641       -1.04805
C          4.53584        1.58694       -0.66754
O          5.45618        1.01602       -0.08935
N          4.57462        2.91655       -0.99401
O          5.71405        3.63940       -0.57806
H          0.65643       -0.41062        0.72523
H          0.66013       -0.19286       -0.88169
H          2.93986        0.11054        1.00202
H          2.66710       -1.09380       -1.86599
H          4.11980       -1.17439       -0.78115
H          2.69862        1.38901       -1.81383
H          3.78045        3.45033       -1.32693
H          6.25520        2.94407       -0.14200
