18

C          1.83170       -1.08689        0.50255
O          2.29650        0.05381       -0.22127
N          2.66019       -0.36620       -1.51354
C          1.71207       -0.41161       -2.51902
C          0.38399       -0.28351       -2.47197
C          4.03002       -0.33333       -1.73720
N          4.62178       -0.51397       -2.86857
C          6.07213       -0.39667       -2.82887
H          1.81857       -0.82966        1.56540
H          2.48510       -1.95401        0.36334
H          0.80793       -1.33441        0.20740
H          2.17921       -0.56669       -3.49336
H         -0.14669       -0.11354       -1.54315
H         -0.20071       -0.34158       -3.38452
H          4.59880       -0.12696       -0.81006
H          6.45989       -0.47948       -3.84944
H          6.51818       -1.20231       -2.23760
H          6.38958        0.57379       -2.43504
