16

N          1.24748        0.70741       -0.40245
C          2.27195        0.09837        0.27854
O          2.47682        0.40940        1.45050
C          3.07567       -0.95847       -0.60214
O          2.91195       -0.68781       -2.03665
C          4.53797       -1.23899       -0.13096
N          4.29784       -2.68355       -0.31998
C          2.84570       -2.44476       -0.19347
H          0.65336        1.36368        0.08467
H          1.02599        0.42371       -1.35049
H          3.50714        0.06435       -2.19943
H          4.75360       -0.96037        0.90645
H          5.32638       -0.83218       -0.77138
H          4.69822       -3.28657        0.39765
H          2.45802       -2.58624        0.82309
H          2.23496       -3.03396       -0.88468
