15

O          0.97517       -0.12778       -0.47162
C          2.34063       -0.02345       -0.48695
C          3.13061       -1.09974       -0.52626
C          4.54121       -0.98094       -0.54031
C          5.43687        0.07271       -0.53179
C          6.74674       -0.46547       -0.55265
C          6.62357       -1.83483       -0.57478
N          5.28613       -2.13844       -0.56902
H          0.60669        0.77310       -0.44432
H          2.69337        0.99959       -0.46351
H          2.66647       -2.08254       -0.54624
H          5.18106        1.12376       -0.51174
H          7.67642        0.08821       -0.55111
H          7.36831       -2.61883       -0.59422
H          4.90704       -3.07592       -0.58227
