14

N          2.69139       -1.29477        0.14528
C          2.34154        0.02265        0.06242
N          1.41791        0.37710       -0.77368
C          2.96809        1.05304        0.86180
C          2.78576        2.42106        0.92081
C          3.67965        2.91064        1.90251
C          4.35650        1.81393        2.38178
O          3.94216        0.68328        1.75251
H          2.59266       -1.83059       -0.70648
H          3.58957       -1.44114        0.59971
H          1.04675       -0.45870       -1.22597
H          2.08093        2.98136        0.32093
H          3.81080        3.93356        2.22308
H          5.12261        1.67735        3.13125
