13

C          0.97552        0.10071        0.09100
C          2.46259        0.03555        0.09320
N          3.25790        1.08547        0.10188
C          4.56932        0.66340        0.10202
C          4.76877       -0.69777        0.09300
S          3.25099       -1.49573        0.08464
C          5.61086        1.63678        0.11084
C          6.50223        2.44165        0.11820
H          0.63635        1.14140        0.08963
H          0.56400       -0.38694        0.98057
H          0.56599       -0.38847       -0.79867
H          5.69924       -1.24589        0.09158
H          7.29524        3.15229        0.12449
