17

C          1.05527        0.52344        0.33321
C          2.45319        0.07425       -0.06528
C          2.89545       -1.11372        0.72167
C          3.56335       -1.17936        1.92847
C          3.77439       -2.54034        2.31960
C          4.44633       -2.99348        3.56649
N          3.31225       -3.46367        1.47644
S          2.60626       -2.71071        0.18179
H          0.76675        1.41339       -0.23488
H          1.00618        0.77027        1.39939
H          0.31487       -0.25929        0.13588
H          3.15609        0.89977        0.10033
H          2.47630       -0.14277       -1.13987
H          3.87587       -0.31448        2.49873
H          4.89300       -2.15046        4.10359
H          5.24386       -3.70825        3.33896
H          3.72512       -3.47694        4.23310
