19

O          2.36236       -1.52502       -1.96978
C          3.19506       -0.39028       -2.24500
C          2.46181        0.88051       -2.54540
C          3.16309        0.72309       -1.22401
N          4.38458        1.49182       -0.93518
C          4.13162        2.92684       -0.83690
C          5.41227        3.64036       -0.53274
C          5.98292        4.55154       -1.33239
H          2.29423       -2.10510       -2.74945
H          4.13079       -0.56882       -2.76436
H          1.37809        0.86617       -2.53419
H          2.88597        1.54346       -3.28881
H          2.53140        0.55295       -0.35331
H          5.09882        1.33544       -1.64403
H          3.41497        3.13211       -0.03384
H          3.69984        3.30443       -1.77129
H          5.88936        3.39439        0.41477
H          5.54286        4.83023       -2.28570
H          6.91224        5.03706       -1.04747
