15

O          0.95709       -0.08363       -0.09715
C          2.37562       -0.05270       -0.11885
C          2.86692       -1.07458       -1.04276
C          3.30154       -1.98433       -1.86951
C          3.80820       -3.04489       -2.83331
C          4.31649       -4.24249       -2.04732
C          4.82130       -5.30387       -3.01118
N          5.24009       -6.18438       -3.81078
H          0.67227        0.62603        0.50166
H          2.74372       -0.23709        0.89470
H          2.69981        0.94327       -0.43489
H          4.60579       -2.61460       -3.45034
H          2.99197       -3.33549       -3.50514
H          3.51937       -4.67246       -1.42956
H          5.13376       -3.95249       -1.37660
