16

N          1.02961       -0.02842        0.01570
C          2.49688       -0.08145       -0.03090
C          3.10439       -1.30124        0.64118
O          3.46670       -0.89264        1.96662
N          3.64499        0.51085        1.95669
C          3.09166        0.95022        0.87038
C          3.06202        2.41056        0.51431
O          3.79791        2.64694       -0.67538
H          0.64366       -0.81181       -0.51079
H          0.70229        0.81418       -0.45728
H          2.84536        0.02331       -1.06204
H          4.01708       -1.62369        0.12686
H          2.42171       -2.15513        0.69330
H          3.48682        3.01208        1.32349
H          2.02694        2.72388        0.35401
H          4.74165        2.60218       -0.43323
