17

C          1.08024       -0.09779       -0.08202
N          2.51988       -0.10406       -0.25817
O          3.03746        1.19271        0.00640
C          3.22845       -1.18120        0.26355
O          2.65911       -2.22580        0.58132
C          4.72784       -1.09549        0.36515
C          5.56170       -0.19793       -0.49046
C          5.31995       -1.95828        1.21290
H          0.65672        0.80342       -0.53324
H          0.84217       -0.13970        0.98268
H          0.66585       -0.97810       -0.57705
H          2.90868        1.61725       -0.86464
H          4.98608        0.34603       -1.23970
H          6.30385       -0.79095       -1.04067
H          6.10272        0.52634        0.12900
H          4.74385       -2.65346        1.81888
H          6.39846       -2.00096        1.31639
