11

O          0.80925        0.62094        0.07322
C          1.99474        0.34422        0.07773
N          3.05259        1.22004        0.08585
C          4.29017        0.64940        0.09028
C          4.28431       -0.68665        0.08596
S          2.65494       -1.30193        0.07546
C          5.56024        1.48439        0.10118
C          6.64971        2.20063        0.11054
H          2.89595        2.21590        0.08881
H          5.15575       -1.32656        0.08905
H          7.54032        2.78552        0.11818
