19

N          0.84631       -0.05615        0.19323
C          2.30453        0.07559        0.10001
C          2.65154        1.41815       -0.56658
C          3.66920        1.41455       -1.71042
O          4.88730        2.02357       -1.24738
C          3.99226        0.08232       -2.39910
C          3.60936       -1.15434       -1.65229
C          2.84839       -1.15024       -0.54826
H          0.45856        0.76668        0.64944
H          0.61648       -0.84915        0.79386
H          2.69598        0.09639        1.12415
H          2.99212        2.10127        0.22411
H          1.73459        1.88683       -0.95293
H          3.30476        2.10234       -2.48352
H          5.31090        1.39985       -0.63183
H          5.06489        0.02658       -2.61497
H          3.47570        0.04653       -3.36659
H          3.94440       -2.10048       -2.06208
H          2.60429       -2.10566       -0.09231
