14

N          1.22999       -1.34084       -0.75667
N          2.58200       -1.30854       -0.76156
C          3.06901       -0.12768       -0.99685
C          4.56389        0.12364       -1.06102
O          4.86038        0.71075       -2.34876
C          5.42054        1.90410       -1.96559
C          5.45712        2.06414       -0.65817
O          4.92139        1.00304        0.02995
H          0.90775       -2.28561       -0.53241
H          0.82967       -0.73108       -0.04033
H          2.42103        0.75337       -1.15864
H          5.11521       -0.81770       -0.95803
H          5.74941        2.55818       -2.75338
H          5.82748        2.88475       -0.07149
