13

O          2.44388       -1.04508       -0.45077
C          3.09090        0.14762        0.03143
C          2.77865        1.50658       -0.67177
C          4.22686        1.58679       -0.93950
N          5.19673        2.32254       -1.42394
S          6.59198        1.35827       -1.21752
C          5.77873       -0.00247       -0.45966
C          4.48112        0.35938       -0.39968
H          1.54625       -1.00863       -0.07808
H          3.03026        0.14480        1.12577
H          2.38856        2.34265       -0.08475
H          2.16891        1.47733       -1.58534
H          6.30708       -0.87930       -0.11867
