15

N          0.94787        0.01155       -0.08455
C          2.20884        0.01155       -0.08455
C          3.72884        0.01155       -0.08455
O          4.21839       -1.33732       -0.25388
C          4.21353       -1.61432       -1.66737
C          4.52436       -0.30949       -2.32023
C          3.47330        0.69888       -2.67626
C          4.15710        0.74588       -1.32642
H          4.13411        0.43677        0.83742
H          3.22602       -1.99347       -1.95479
H          4.95887       -2.38313       -1.88264
H          5.49288       -0.27421       -2.79591
H          2.43873        0.38429       -2.74923
H          3.73283        1.47015       -3.39767
H          4.89415        1.51653       -1.12677
