18

N          2.90486        1.28387        2.62001
C          2.41289        1.18777        1.43804
N          3.12017        1.24877        0.28004
C          4.57376        1.25605        0.26407
C          5.11003        1.24378       -1.15134
C          6.48664        1.83904       -0.97114
O          6.36695        2.83270        0.05103
C          5.17825        2.54638        0.81551
H          2.15105        1.21173        3.31242
H          1.32944        1.04925        1.27611
H          2.66172        0.92329       -0.56250
H          4.96923        0.38910        0.80852
H          4.50735        1.88956       -1.80230
H          5.13459        0.24569       -1.59863
H          6.86991        2.29696       -1.88719
H          7.20508        1.08593       -0.62950
H          4.50341        3.40290        0.70671
H          5.44940        2.45644        1.87192
