12

C          1.10163        0.21084       -0.07520
C          2.58537        0.23819       -0.07738
C          3.42867        1.34021       -0.07737
S          5.03970        0.74623       -0.08016
N          4.55676       -0.85293       -0.08123
N          3.24295       -0.99084       -0.07954
C          3.09143        2.72156       -0.07546
C          2.84714        3.89781       -0.07393
H          0.66606        1.21375       -0.07633
H          0.73776       -0.31665        0.81281
H          0.73503       -0.31976       -0.96015
H          2.65747        4.94656       -0.07262
