14

C          1.05704        0.03935        0.07401
C          2.57905       -0.04963        0.01888
O          3.03334       -0.65380        1.23460
C          3.06956       -0.80290       -1.18080
N          2.75058       -2.09777       -1.32904
S          3.47349       -2.56286       -2.76757
N          4.21727       -1.12662       -3.20007
C          3.90285       -0.27740       -2.22047
H          0.74004        0.61170        0.95159
H          0.59968       -0.95325        0.16845
H          0.65107        0.51917       -0.82227
H          2.98626        0.96715        0.00318
H          2.83469       -1.60623        1.14384
H          4.29452        0.72957       -2.28217
