15

C          0.98778        0.18354        0.04184
C          2.50232        0.07922        0.03788
O          2.86928       -1.05223        0.82479
C          4.18006       -1.29087        0.87986
N          5.04884       -0.77264        0.03872
C          6.31776       -1.21516        0.35824
C          6.39996       -2.04732        1.45351
S          4.83011       -2.32433        2.08197
H          0.65744        1.07280       -0.50108
H          0.60655        0.23167        1.06593
H          0.54239       -0.70133       -0.42368
H          2.93041        0.98586        0.47820
H          2.85365       -0.03049       -0.99508
H          7.15883       -0.89263       -0.24343
H          7.27599       -2.49852        1.89545
