13

O          2.60435        0.36605        1.08170
C          2.23693       -0.18484        0.05598
O          2.97851       -0.73161       -0.94422
C          4.31917       -0.80207       -0.81705
C          5.13716       -0.90333       -1.91828
N          6.43317       -0.95730       -1.47294
C          6.44389       -0.93263       -0.10113
C          5.13879       -0.84670        0.33386
H          1.17503       -0.29590       -0.21676
H          4.91325       -0.92437       -2.97584
H          7.25381       -1.01022       -2.06230
H          7.37484       -0.97982        0.44644
H          4.82547       -0.81701        1.37034
