15

O          0.90309        0.07148       -0.05629
N          2.28571        0.06293        0.03762
C          3.08866        1.19411        0.07213
C          4.33902        0.69115        0.13575
C          5.80142        0.76900        0.19578
C          5.77101       -0.79492        0.19717
C          4.31227       -0.66842        0.13874
C          3.03589       -1.10052        0.08083
H          0.71857        0.99328        0.17967
H          2.68122        2.19286        0.04049
H          6.17806        1.28691        1.08512
H          6.24908        1.28696       -0.65971
H          6.13108       -1.32542        1.08574
H          6.19965       -1.32905       -0.65846
H          2.56311       -2.07098        0.05465
