13

C          1.30402       -0.09164       -0.55287
C          2.29686        0.03999        0.33341
N          2.88517       -0.98238        1.04569
C          3.89414       -0.63612        1.92437
C          4.41919       -1.66644        2.59412
S          3.66911       -3.16666        2.15510
C          2.58601       -2.34722        1.00057
O          1.76329       -2.95596        0.33624
H          0.90355        0.77935       -1.06200
H          0.85496       -1.04706       -0.80405
H          2.67972        1.04249        0.51741
H          4.21143        0.39285        2.04110
H          5.21290       -1.60076        3.32545
