15

C          1.19555       -0.10660        0.08275
O          2.58603       -0.21207       -0.14361
S          3.10239       -1.45140       -1.05804
O          2.59212       -2.67847       -0.48395
O          2.85870       -1.10821       -2.44039
N          4.76558       -1.39294       -0.81395
C          5.49017       -2.56638       -1.11484
C          6.81592       -2.42739       -1.11548
H          1.01193        0.77603        0.70207
H          0.82334       -0.98548        0.61545
H          0.66067        0.01319       -0.86430
H          5.18294       -0.48455       -1.00311
H          4.97246       -3.50740       -1.27893
H          7.31510       -1.48556       -0.91653
H          7.44880       -3.29087       -1.29789
