19

N          0.90208       -0.00630       -0.06224
C          2.36567        0.01022       -0.07447
C          2.90704        0.96720       -1.13745
C          4.42704        0.96720       -1.13745
C          5.73089        0.96720       -1.13745
C          7.25089        0.96720       -1.13745
C          7.78600        2.22616       -1.81120
O          7.44343        3.39659       -1.07090
H          0.58142       -0.66066        0.65034
H          0.55613       -0.36543       -0.95130
H          2.73499       -1.00572       -0.25405
H          2.72328        0.31247        0.91693
H          2.55532        1.98836       -0.94929
H          2.55688        0.67202       -2.13353
H          7.60904        0.07644       -1.66369
H          7.59205        0.91959       -0.09741
H          7.40646        2.33510       -2.83118
H          8.87909        2.18566       -1.85810
H          6.46777        3.43356       -1.03434
