14

N          1.11647        0.01076       -0.08183
C          2.46518        0.07678       -0.13051
N          3.08522        0.98568       -0.80057
C          4.45365        0.94175       -0.76818
C          5.16901        1.85192       -1.43919
C          6.63786        1.81463       -1.41170
O          7.17951        2.80911       -2.14485
O          7.30181        0.99212       -0.80532
H          0.61904       -0.69635        0.43947
H          0.58622        0.70479       -0.59349
H          2.96018       -0.71939        0.45645
H          4.95730        0.16265       -0.19381
H          4.66131        2.61929       -2.00491
H          6.53810        3.39977       -2.58030
