20

C          0.92795        0.18218        0.46822
C          2.42949        0.07088        0.18977
C          2.78860       -1.31938       -0.37643
C          2.55709       -1.20166       -1.86185
C          3.61771       -0.67593       -2.79139
C          2.60302        0.27030       -2.22623
C          2.83734        0.97957       -0.95790
C          3.44092        2.16463       -0.80319
H          0.62708       -0.53106        1.24309
H          0.32552       -0.02858       -0.42378
H          0.66696        1.18830        0.81292
H          2.99093        0.27022        1.10895
H          2.18926       -2.12027        0.07133
H          3.84581       -1.54406       -0.18289
H          1.73944       -1.79732       -2.23997
H          3.53290       -0.93055       -3.84261
H          4.64042       -0.61133       -2.44038
H          1.81997        0.65814       -2.86771
H          3.77934        2.73520       -1.66286
H          3.63581        2.57641        0.18289
