15

C          1.04805       -0.07720        0.11275
O          2.46647       -0.05975        0.00916
C          3.06659        1.16534       -0.00449
C          2.43213        2.40171        0.07234
C          3.19497        3.57004        0.03871
C          4.57189        3.46087       -0.06907
N          5.22352        2.28277       -0.14277
C          4.45399        1.16711       -0.10863
H          0.72302       -1.12150        0.07849
H          0.58175        0.44329       -0.73042
H          0.71937        0.34449        1.06845
H          1.35500        2.49197        0.15726
H          2.72344        4.54533        0.09436
H          5.20419        4.34350       -0.10022
H          5.00315        0.23121       -0.17003
