12

O          1.05408        0.08126        0.02578
C          2.39253        0.09897        0.02985
C          3.17292        1.22019        0.03288
N          4.47552        0.76652        0.03682
C          5.65511        1.51199        0.04125
O          5.59452        2.73724        0.04198
N          4.55266       -0.59318        0.03614
C          3.27450       -0.98830        0.03192
H          0.70052        0.98808        0.02543
H          2.95961        2.27945        0.03279
H          6.60283        0.95013        0.04398
H          3.04240       -2.04542        0.03057
