15

N          1.74313        0.15477       -1.14285
C          2.78930       -0.02967       -0.26146
C          3.84311       -0.85153       -0.34659
C          4.48798       -1.11073        0.99391
O          4.07436       -0.64842        2.04839
C          4.38690       -1.49834       -1.55650
C          5.62938       -0.85302       -2.13828
O          5.66348       -2.16401       -1.57407
H          1.02175        0.77184       -0.73346
H          1.29595       -0.74186       -1.32175
H          2.63456        0.56965        0.64534
H          5.32175       -1.81766        0.96511
H          3.64701       -1.88333       -2.25319
H          6.10970       -0.04840       -1.58665
H          5.74852       -0.77254       -3.21527
