12

O          2.76648       -1.50311        0.11889
C          2.32208       -0.81673       -0.78722
O          3.00000        0.04870       -1.58268
N          4.36546        0.08502       -1.30384
C          5.07617        1.22812       -1.09441
C          6.39296        0.82934       -1.11015
N          6.49570       -0.52166       -1.33522
C          5.25526       -0.93960       -1.46008
H          1.26784       -0.83175       -1.10505
H          4.60853        2.19685       -0.97904
H          7.27891        1.44366       -0.98887
H          4.94227       -1.95477       -1.65990
