15

C          1.27525       -0.85566        0.53328
C          2.46876       -0.80251        0.39442
C          3.90121       -0.65317        0.17715
C          4.33734        0.83717        0.11580
C          5.31358        0.61169        1.27505
C          4.79167       -0.82172        1.43929
C          4.33484       -1.45587       -0.95792
N          4.70049       -2.09269       -1.85660
H          0.21346       -0.86564        0.62371
H          4.81270        1.15671       -0.81845
H          3.54971        1.56364        0.35192
H          6.36610        0.67763        0.98386
H          5.14362        1.25748        2.14127
H          5.58196       -1.57969        1.36966
H          4.25463       -0.99044        2.38109
