18

C          1.22475        0.15125       -0.01995
C          2.67044       -0.23610       -0.13438
N          3.01518       -1.37804       -0.66224
C          4.49288       -1.38606       -0.56373
C          4.88535       -0.12405        0.19979
C          5.48945        1.07158       -0.53653
C          4.06901        1.60224       -0.65956
N          3.64877        0.62619        0.32625
H          0.58094       -0.70560       -0.23559
H          1.00497        0.95433       -0.72823
H          1.02112        0.50521        0.99484
H          4.92434       -1.40518       -1.57026
H          4.81570       -2.28471       -0.02869
H          5.32492       -0.32416        1.18375
H          6.00208        0.85196       -1.47635
H          6.14085        1.69240        0.08956
H          3.61877        1.46752       -1.65132
H          3.91635        2.62900       -0.31958
