19

C          0.93097        0.14582        0.11298
C          2.43364       -0.04732        0.01248
N          3.12526        1.02858        0.77190
C          4.44022        0.47021        1.11788
C          4.21817       -0.98721        1.47306
C          3.00644       -1.31152        0.64684
N          2.62060       -2.54727        0.55566
N          1.54039       -2.79798       -0.20729
H          0.65045        1.17479       -0.13887
H          0.55830       -0.07808        1.11786
H          0.40106       -0.50157       -0.59331
H          2.75817       -0.00918       -1.03337
H          2.60694        1.18886        1.63833
H          4.89610        1.02126        1.94688
H          5.10934        0.56259        0.25448
H          3.98067       -1.12721        2.53195
H          5.06744       -1.61528        1.18726
H          1.29375       -3.78855       -0.13109
H          1.73784       -2.64817       -1.20032
