19

C          3.10101       -1.06838        0.95052
C          2.35841       -0.06222        0.08579
C          3.02514        0.06139       -1.27862
C          2.98197       -1.11575       -2.35187
N          3.30053        0.03166       -3.32904
C          2.19764        0.69078       -2.48405
C          1.03104       -0.18747       -2.75260
C          1.56304       -1.41047       -2.66262
H          2.63395       -1.13826        1.93765
H          4.14748       -0.77565        1.08653
H          3.08679       -2.06366        0.49504
H          2.36704        0.91470        0.58275
H          1.31057       -0.36623        0.00531
H          4.02692        0.50371       -1.14523
H          3.69933       -1.93425       -2.30536
H          3.02425       -0.15704       -4.29142
H          2.08338        1.77050       -2.57238
H          0.01413        0.10067       -2.96553
H          1.09206       -2.37123       -2.78594
