18

C          3.26587       -0.81731       -1.09448
C          2.52639       -0.25738        0.10674
C          3.03532       -0.88656        1.37758
N          4.02123       -0.33982        2.04256
C          4.17833       -1.17228        3.26354
C          3.18820       -2.28452        3.09331
C          3.30731       -3.24176        1.95337
N          2.45111       -2.05552        1.84013
H          2.84974       -0.41114       -2.02148
H          3.19052       -1.90903       -1.13383
H          4.32940       -0.55935       -1.05453
H          1.45420       -0.45957        0.01511
H          2.66335        0.82780        0.16138
H          3.95104       -0.56999        4.14877
H          5.20170       -1.55302        3.33317
H          2.55692       -2.49379        3.94231
H          2.74323       -4.16294        1.98731
H          4.18173       -3.22719        1.31698
