13

C          1.46124       -0.40818        0.86164
C          2.28879        0.02426       -0.10020
C          2.97456       -0.85622       -1.05750
C          3.81350       -0.33688       -2.02451
N          4.44512       -1.13778       -2.90555
N          4.23712       -2.46948       -2.81889
C          3.40979       -2.93303       -1.85916
N          2.75597       -2.18390       -0.95788
H          0.98212        0.28914        1.54073
H          1.24111       -1.46396        0.99591
H          2.47667        1.09008       -0.19390
H          4.00916        0.72155       -2.13047
H          3.26389       -4.00500       -1.81647
