19

C          1.06614        0.05879        0.04658
C          2.58614        0.05879        0.04658
C          3.89000        0.05879        0.04658
C          5.33567        0.05420        0.02754
C          6.03294        1.12298        0.90912
C          7.03880        0.04495        1.36005
N          8.19075        0.04269        0.45507
C          6.02191       -1.02181        0.91018
H          0.69300        0.92141       -0.51241
H          0.69307        0.11160        1.07316
H          0.69301       -0.85665       -0.42094
H          5.72591        0.05159       -0.99944
H          5.41619        1.49575        1.73778
H          6.43636        1.98986        0.37571
H          7.30185        0.04922        2.42051
H          7.97617        0.05206       -0.54123
H          8.82179       -0.74503        0.59887
H          5.40185       -1.38721        1.73962
H          6.41621       -1.89328        0.37764
