21

C          0.96241        0.01150        0.00938
C          2.48077       -0.02816       -0.02468
C          2.97176       -1.38547       -0.29534
C          3.36998       -2.50083       -0.49417
C          3.84096       -3.88048       -0.70676
C          4.71874       -4.38323        0.45719
C          3.96594       -4.41253        1.79026
N          5.21989       -5.73479        0.16138
H          0.61328        1.02805        0.21601
H          0.56621       -0.64924        0.78843
H          0.53662       -0.30692       -0.94836
H          2.87402        0.32088        0.93664
H          2.84732        0.66050       -0.79344
H          4.41645       -3.91837       -1.64065
H          2.97660       -4.54276       -0.84182
H          5.58614       -3.72003        0.56248
H          3.07394       -5.04617        1.73388
H          3.64868       -3.40817        2.08932
H          4.60541       -4.79799        2.59241
H          4.43746       -6.38802        0.11838
H          5.80482       -6.05383        0.93363
