21

C          0.91318       -0.21834        0.10541
C          2.43148       -0.11142        0.13138
C          3.07326       -1.47268        0.41784
C          4.61444       -1.44274        0.41761
N          5.09761       -0.49705        1.43733
C          6.54670       -0.32873        1.41681
C          5.12110       -2.82607        0.79192
C          5.55571       -4.01269        1.11300
H          0.46457        0.76683       -0.06525
H          0.52925       -0.60125        1.05606
H          0.57474       -0.88653       -0.69207
H          2.71426        0.61612        0.89776
H          2.78222        0.27146       -0.83221
H          2.73424       -2.19542       -0.33169
H          2.70586       -1.84484        1.38607
H          4.97931       -1.16034       -0.57680
H          4.81631       -0.84863        2.35269
H          6.85789        0.25573        0.54617
H          7.09443       -1.27592        1.42189
H          6.85701        0.21932        2.31274
H          5.91109       -4.98234        1.37535
