22

C          0.96495        0.14929       -0.17466
C          2.46510        0.06701       -0.06147
C          3.22848        0.93485       -1.03134
C          3.09343       -0.70225        0.87135
C          2.35845       -1.51440        1.91731
N          2.60913       -2.94410        1.76346
C          4.60195       -0.79052        0.97142
N          5.11892        0.19513        1.91467
H          0.65258        0.69646       -1.07164
H          0.54411        0.67414        0.68895
H          0.52003       -0.84728       -0.24969
H          2.56197        1.55919       -1.63638
H          3.81618        0.32392       -1.72372
H          3.89466        1.62204       -0.49828
H          1.27632       -1.35300        1.88968
H          2.68577       -1.19503        2.91352
H          2.15567       -3.26874        0.91266
H          2.16395       -3.43786        2.53510
H          5.07651       -0.64717       -0.00263
H          4.90991       -1.79042        1.29605
H          4.96900        1.12243        1.52365
H          6.12734        0.07505        1.98179
