17

C          2.85422        1.09485        0.91612
C          2.47259       -0.09193        0.04325
C          3.07431       -0.02260       -1.35903
N          4.52354       -0.04872       -1.37620
N          5.21232       -1.10655       -0.89551
C          6.47384       -0.71028       -1.08943
C          6.48818        0.55286       -1.69401
N          5.23606        0.97956       -1.88273
H          2.36273        1.01811        1.89129
H          2.54618        2.03755        0.45332
H          3.93410        1.13236        1.09008
H          1.38001       -0.12648       -0.04585
H          2.77918       -1.01841        0.54346
H          2.74750        0.88935       -1.87228
H          2.74144       -0.87833       -1.95675
H          7.29613       -1.34456       -0.78968
H          7.32403        1.16641       -1.99858
