22

C          0.84751       -0.11116        0.02155
C          2.36965       -0.06264        0.07638
C          2.92063        0.81309        1.21728
N          2.50225        0.30612        2.53157
C          4.46215        0.88963        1.19559
C          4.99523        1.53052       -0.05485
C          6.48225        1.63523       -0.27953
N          5.66465        0.72326       -1.07219
H          0.52333       -0.66596       -0.86498
H          0.42475        0.89698       -0.03740
H          0.42704       -0.61447        0.89691
H          2.71922        0.32946       -0.88579
H          2.75929       -1.08468        0.15949
H          2.52087        1.82906        1.10848
H          2.73115       -0.68551        2.60596
H          1.48830        0.36524        2.61580
H          4.89277       -0.11100        1.33630
H          4.79984        1.49579        2.04693
H          4.39270        2.36080       -0.40680
H          7.16049        1.18937        0.43654
H          6.85750        2.50717       -0.80191
H          5.80058       -0.24103       -0.76152
