23

C          2.19671       -0.94501        1.42043
C          2.06013        0.12891        0.34313
N          3.35496        0.69772       -0.05004
C          4.27767       -0.26342       -0.66790
C          3.90842       -0.63906       -2.10216
C          3.81519        0.60746       -2.97431
C          2.87211        1.63071       -2.34921
C          3.20811        1.90270       -0.88197
H          1.24168       -1.08450        1.93760
H          2.94248       -0.66642        2.17335
H          2.48373       -1.90913        0.98867
H          1.44313        0.92857        0.77234
H          1.50371       -0.27574       -0.51029
H          4.37516       -1.16933       -0.06024
H          5.28138        0.18283       -0.66742
H          2.95382       -1.17804       -2.12171
H          4.66518       -1.31814       -2.51201
H          3.47120        0.33979       -3.98001
H          4.81302        1.05019       -3.08403
H          1.83865        1.27036       -2.43485
H          2.92642        2.56816       -2.91818
H          2.45678        2.57595       -0.45341
H          4.15285        2.45838       -0.83845
