17

C          0.89302       -0.13718        0.06239
C          2.41444       -0.00340        0.05832
N          2.96162       -0.34085       -1.26016
C          2.85303        1.38969        0.40300
C          3.66371        1.81131        1.43678
N          3.76152        3.16689        1.29251
C          3.01868        3.52100        0.20271
N          2.45503        2.47628       -0.35539
H          0.58876       -1.16512       -0.16563
H          0.42282        0.52487       -0.67414
H          0.48437        0.12239        1.04568
H          2.82990       -0.70711        0.78972
H          2.69289        0.41785       -1.89203
H          2.50531       -1.17814       -1.61174
H          4.17043        1.27537        2.22646
H          4.29102        3.79713        1.87761
H          2.93029        4.54531       -0.13240
