15

C          0.98726       -0.07550        0.12029
C          2.47324        0.02512        0.23535
C          3.26133       -0.99668        0.60482
N          4.66001       -0.96514        0.70935
N          5.39460       -2.05182        1.13017
C          6.65098       -1.61531        1.07944
C          6.67828       -0.29738        0.63949
N          5.44023        0.13275        0.41110
H          0.63788        0.53555       -0.71766
H          0.51184        0.29149        1.03432
H          0.66179       -1.10506       -0.06122
H          2.91618        0.98889       -0.00913
H          2.83940       -1.96184        0.86571
H          7.46379       -2.26987        1.35942
H          7.51937        0.36196        0.47701
