19

C          0.98715        0.08886        0.13995
C          2.52654        0.03925        0.07882
N          2.98234       -0.74448        1.24543
C          3.01121       -0.68656       -1.21217
C          2.55806       -0.05205       -2.46870
C          2.18809        0.46817       -3.48602
C          3.07334        1.45852        0.14186
C          3.90738        1.98300        1.05312
H          0.55531       -0.91902        0.11862
H          0.56136        0.64645       -0.70190
H          0.63758        0.57977        1.05683
H          2.57597       -1.67777        1.20824
H          2.60640       -0.31483        2.09022
H          2.65422       -1.72585       -1.20612
H          4.10884       -0.73843       -1.21976
H          1.85852        0.93823       -4.38351
H          2.74365        2.11858       -0.66085
H          4.30212        1.39966        1.87855
H          4.22859        3.01707        0.97912
