20

C          1.03970        0.01394        0.04527
C          2.57935        0.00887        0.01851
N          3.02313       -1.14343       -0.78896
C          3.04392        1.31934       -0.60012
C          3.81002        1.50777       -1.68643
C          3.10717       -0.14673        1.44811
C          2.87360       -1.39683        2.26881
N          4.19823       -1.09259        1.74632
H          0.61748        0.12292       -0.96107
H          0.65740        0.83791        0.65998
H          0.64013       -0.91346        0.47313
H          2.67539       -1.01534       -1.73850
H          2.55540       -1.98131       -0.45125
H          2.70965        2.21446       -0.07545
H          4.21336        0.68143       -2.26164
H          4.06807        2.51069       -2.01277
H          3.14339        0.79136        1.99204
H          2.36403       -2.24747        1.83763
H          2.74901       -1.28045        3.33901
H          4.39676       -1.58217        0.86426
