19

C          1.73777        0.40933        1.21319
C          2.54253        0.21596       -0.06557
C          2.96425        1.51716       -0.73591
N          1.94605        2.38798       -1.08804
C          4.27165        1.70605       -1.00304
C          4.87067        2.88281       -1.69814
N          4.21416        4.06293       -1.87321
N          6.08175        2.83353       -2.15617
H          1.52509       -0.56478        1.66759
H          0.77810        0.89622        1.01266
H          2.28665        1.01140        1.94354
H          1.95059       -0.37056       -0.77897
H          3.42118       -0.39501        0.17796
H          1.05378        1.92225       -1.24488
H          2.20292        2.97224       -1.88712
H          4.98980        0.94177       -0.72564
H          3.62798        4.32519       -1.08547
H          4.87552        4.79137       -2.12337
H          6.49475        1.91067       -1.99715
