18

C          1.33521       -0.03127        0.74188
C          2.35579       -0.02910       -0.11827
N          3.01560        1.04550       -0.71570
C          2.57309        2.41486       -0.45367
C          3.35800        3.49819       -1.17404
C          4.31717        3.06235       -2.26373
N          4.83453        1.71245       -2.14605
C          4.15802        0.86832       -1.46178
H          0.93718       -0.97017        1.11960
H          0.87894        0.87937        1.11273
H          2.75843       -0.99238       -0.43037
H          2.65185        2.60802        0.62515
H          1.51298        2.51212       -0.71041
H          3.91380        4.07752       -0.42514
H          2.64803        4.22107       -1.60280
H          5.17000        3.75556       -2.26015
H          3.84583        3.17612       -3.24660
H          4.52520       -0.16875       -1.44435
