22

C          1.03882        0.19687       -0.07368
C          2.55629        0.10131       -0.11140
N          2.95841       -1.14157       -0.77051
N          4.28939       -1.38432       -0.79567
C          4.68753       -2.54372       -1.23005
C          3.81071       -3.66122       -1.75554
C          6.18629       -2.79532       -1.25151
C          6.78575       -2.34692       -2.57094
H          0.72998        1.14291        0.38189
H          0.60788       -0.61783        0.51892
H          0.61219        0.15006       -1.08103
H          2.94353        0.12253        0.91368
H          2.96720        0.96451       -0.64658
H          2.43004       -1.91381       -0.36468
H          2.74411       -3.44653       -1.69937
H          4.01032       -4.56518       -1.17276
H          4.06789       -3.85469       -2.80101
H          6.37254       -3.86247       -1.09310
H          6.65266       -2.25056       -0.42250
H          6.33409       -2.88211       -3.41295
H          7.86322       -2.53538       -2.58384
H          6.62270       -1.27622       -2.73184
