24

C          0.83129       -0.07152       -0.00904
C          2.35269       -0.02930        0.10261
N          2.86178        1.13056        0.85683
C          2.39582        1.11830        2.24831
C          4.33824        1.18263        0.84088
C          4.98026        1.37489       -0.54248
C          4.49719        2.63956       -1.25049
N          5.12510        2.75328       -2.56505
H          0.53413       -0.85557       -0.71356
H          0.43521        0.87911       -0.38178
H          0.35636       -0.29915        0.94970
H          2.72386        0.01203       -0.92647
H          2.71365       -0.96929        0.53802
H          1.30555        1.19929        2.30645
H          2.78551        1.98547        2.79442
H          2.70797        0.21093        2.77817
H          4.75435        0.27464        1.29757
H          4.66875        2.02398        1.46484
H          4.80505        0.49414       -1.17128
H          6.06808        1.43121       -0.40458
H          4.74820        3.52280       -0.65347
H          3.41091        2.62272       -1.38273
H          6.13744        2.81074       -2.46087
H          4.82904        3.62477       -3.00223
