19

C          2.83935        1.46715       -0.18598
C          2.49952       -0.00993        0.01958
N          1.03618       -0.16857        0.02613
C          3.10704       -0.92450       -1.06567
C          4.61250       -0.87629       -1.16464
C          5.25615       -0.46347       -2.26922
C          5.47275       -1.33246        0.00252
C          6.21068       -1.72376        1.00372
H          2.37577        2.08552        0.59139
H          2.48706        1.83003       -1.15844
H          3.91917        1.63918       -0.13128
H          2.87080       -0.32240        1.00322
H          0.65187        0.16134       -0.86004
H          0.63439        0.43250        0.74378
H          2.66790       -0.66266       -2.03884
H          2.80950       -1.96475       -0.87455
H          4.71436       -0.13395       -3.15020
H          6.34012       -0.44912       -2.32021
H          6.81277       -2.04576        1.82103
