19

C          1.18635       -1.10594       -0.33947
C          2.56507       -1.06208        0.23657
N          3.60377       -0.92146       -0.51715
N          4.73018       -0.96685        0.21836
C          5.78605       -1.53315       -0.61639
C          5.69480       -0.04502       -0.39528
C          6.58922        0.70399        0.53848
N          7.99619        0.49525        0.20978
H          0.50070       -0.58767        0.33675
H          0.87610       -2.15104       -0.41658
H          1.15988       -0.63922       -1.32603
H          2.64327       -1.20762        1.33200
H          5.52195       -1.92594       -1.59026
H          6.54401       -2.09804       -0.08745
H          5.38169        0.55925       -1.24035
H          6.41544        0.41223        1.58126
H          6.36154        1.77343        0.46481
H          8.24132       -0.46807        0.43741
H          8.56021        1.07187        0.83347
