20

C          2.45958        1.42027       -0.37169
C          2.36741       -0.05422       -0.01173
N          2.78607       -0.91561       -1.11832
C          1.88844       -1.30210       -2.08416
N          2.08487       -1.98041       -3.16109
C          4.23143       -1.01391       -1.38924
C          5.19794       -1.48595       -0.33400
C          4.91951       -2.34724       -1.52612
H          2.13957        2.03375        0.47741
H          1.81970        1.66345       -1.22594
H          3.48550        1.70716       -0.62472
H          1.33731       -0.29405        0.27872
H          2.98413       -0.25226        0.87113
H          0.85644       -0.97844       -1.86538
H          3.07285       -2.23316       -3.21877
H          4.57568       -0.21965       -2.04907
H          4.81056       -1.82413        0.61971
H          6.16302       -0.99729       -0.27466
H          4.33186       -3.24565       -1.37441
H          5.69292       -2.44180       -2.27934
