19

C          1.01571        0.06765       -0.03873
N          2.46020        0.09995        0.15373
C          3.21023       -0.58578       -0.89041
C          4.52400       -1.25089       -0.58999
C          5.40055       -0.48964        0.41696
C          5.41583        0.99821        0.18686
C          4.37085        1.61721       -0.38913
C          3.15454        0.92800       -0.83687
H          0.59954       -0.80523        0.47477
H          0.69912        0.02135       -1.08769
H          0.56519        0.95984        0.40877
H          2.66154       -1.09810       -1.67139
H          5.07559       -1.34131       -1.53505
H          4.35047       -2.27119       -0.23003
H          6.42377       -0.87789        0.35994
H          5.04666       -0.67660        1.43863
H          6.26991        1.56731        0.53770
H          4.40308        2.69562       -0.51853
H          2.56396        1.44582       -1.58452
