24

C          2.95937       -1.36278       -0.05368
N          2.51280        0.03457       -0.06773
C          1.06328        0.05954       -0.29262
C          2.98639        0.85337        1.09983
C          2.49092        2.31557        0.94073
C          2.47282        0.32375        2.45863
C          4.56534        0.88174        1.11901
N          5.18871        1.72914        2.14516
H          2.63336       -1.87596       -0.96704
H          2.56203       -1.92438        0.79803
H          4.04909       -1.44789       -0.05826
H          0.80189       -0.54043       -1.17287
H          0.70253        1.06586       -0.52339
H          0.49724       -0.33803        0.55539
H          1.39922        2.39153        0.97909
H          2.83268        2.74803       -0.00657
H          2.85387        2.95887        1.75002
H          1.37926        0.31682        2.50716
H          2.81723        0.95529        3.28575
H          2.82888       -0.69095        2.66277
H          4.93627        1.20515        0.13813
H          4.95252       -0.12757        1.29332
H          4.99825        2.70787        1.93393
H          6.20114        1.62849        2.08008
