20

C          1.04587       -0.13262        0.27494
N          2.46853        0.03626        0.08796
C          3.03733        0.27290       -1.05115
C          2.28188        0.46039       -2.34539
C          1.17307        1.19823       -2.50293
N          4.43622        0.27918       -1.06650
C          5.20597       -0.07420        0.12702
C          5.26570        0.61681       -2.21325
H          0.88011       -0.58877        1.25675
H          0.59978       -0.80375       -0.46460
H          0.52356        0.82742        0.29106
H          2.72447       -0.01329       -3.21331
H          0.69738        1.72341       -1.68505
H          0.71243        1.29237       -3.48116
H          4.59113       -0.34018        0.99103
H          5.84253        0.76483        0.42531
H          5.84635       -0.93618       -0.08754
H          4.70157        0.93663       -3.09232
H          5.87339       -0.24827       -2.50253
H          5.94547        1.43690       -1.95583
