22

C          0.55966       -1.47067       -0.13563
N          2.00067       -1.65735       -0.02869
C          2.69948       -0.84212       -1.02997
C          4.20861       -1.11431       -0.99254
C          5.08540       -0.23041       -1.85357
C          5.09354       -0.05456       -0.36581
N          4.65680       -2.51938       -0.78493
C          4.29961       -3.42353       -1.86620
H          0.05419       -2.11773        0.58764
H          0.19096       -1.73422       -1.13319
H          0.27780       -0.43738        0.08836
H          2.21413       -2.63488       -0.21637
H          2.50370        0.22096       -0.84128
H          2.33408       -1.07451       -2.03795
H          4.61760        0.54254       -2.45192
H          5.96400       -0.66790       -2.31403
H          4.62926        0.83274        0.04929
H          5.97725       -0.37555        0.17390
H          4.28993       -2.85459        0.10589
H          4.72760       -3.09357       -2.81681
H          3.21483       -3.51878       -1.98404
H          4.69656       -4.41950       -1.65054
