17

C          1.04437        0.07628        0.00507
N          2.49810        0.20124        0.03017
C          3.06901        0.19175       -1.12258
N          2.42469        0.05894       -2.33842
C          3.36941        0.03115       -3.22284
N          4.65141        0.18821       -2.78343
C          4.59018        0.26501       -1.32372
C          5.17089        1.57789       -0.84045
H          0.68583       -0.07205        1.02870
H          0.71139       -0.78882       -0.57841
H          0.57704        0.98832       -0.38073
H          3.23344       -0.12022       -4.30491
H          5.36063       -0.40940       -3.19166
H          5.06646       -0.60136       -0.85540
H          4.68900        2.43370       -1.32713
H          6.24227        1.63184       -1.06196
H          5.03579        1.69379        0.23959
