16

O          0.81340        0.12759        0.15626
C          2.00013       -0.09022        0.14609
C          2.96731       -1.35598       -0.07261
C          3.83852       -0.58149        0.97464
C          5.23885       -0.06529        1.16389
O          5.04922        1.24425        1.75774
C          3.67383        1.62953        1.49525
C          3.26743        0.73774        0.36817
H          3.38941       -1.44245       -1.07649
H          2.56654       -2.31198        0.26692
H          3.46050       -0.84075        1.98214
H          5.78447        0.05465        0.22147
H          5.83282       -0.68189        1.84395
H          3.65043        2.68999        1.23054
H          3.08977        1.47864        2.41000
H          3.70408        1.05235       -0.59220
