22

C          0.95713       -0.13703        0.20870
C          2.47196       -0.08896        0.05736
O          2.99899       -1.41480        0.08287
C          2.92248        0.62646       -1.22728
C          2.41892       -0.02454       -2.52105
C          2.72250        2.17542       -1.18775
C          4.13094        2.33034       -1.79113
C          4.45647        0.92303       -1.25683
H          0.68945       -0.59594        1.16672
H          0.49122       -0.75526       -0.56548
H          0.51548        0.86309        0.16644
H          2.88579        0.42478        0.93302
H          2.50380       -1.95126       -0.55915
H          1.32576       -0.01621       -2.57251
H          2.75897       -1.06189       -2.60104
H          2.78242        0.50193       -3.41047
H          2.64191        2.59911       -0.17914
H          1.90547        2.57456       -1.79543
H          4.73489        3.14381       -1.38025
H          4.13965        2.40396       -2.88423
H          4.93799        0.94127       -0.27142
H          5.05948        0.29769       -1.92177
