18

N          0.88145        0.38945       -0.22294
C          2.32718        0.26858       -0.04826
C          3.02532        1.45367       -0.63454
C          4.35874        1.58529       -0.78798
C          5.44148        0.61162       -0.35776
N          5.13271       -0.20719        0.81001
C          4.86540        2.86401       -1.43495
C          5.30001        3.96090       -1.98993
H          0.43596       -0.38695        0.26431
H          0.65995        0.26231       -1.20770
H          2.65959       -0.65858       -0.52801
H          2.52474        0.21053        1.02562
H          2.38447        2.26502       -0.97474
H          6.35773        1.17042       -0.12829
H          5.67501       -0.04376       -1.20332
H          5.04757        0.41056        1.61912
H          5.92947       -0.81032        1.00581
H          5.64899        4.85919       -2.44345
