20

C          1.01298       -0.12271        0.03638
C          2.54062       -0.14100        0.09010
C          3.03532        0.85414        1.14490
C          3.08629       -1.54705        0.36979
C          2.74096       -2.58624       -0.67488
O          3.71827       -3.60409       -0.45915
C          4.87049       -2.89465        0.00193
O          4.51935       -1.55203        0.34622
H          0.64528        0.88833       -0.17014
H          0.57904       -0.45167        0.98679
H          0.63382       -0.77613       -0.75557
H          2.92831        0.20075       -0.87866
H          2.69099        0.57364        2.14621
H          2.66519        1.86239        0.93003
H          4.12893        0.90215        1.16310
H          2.77750       -1.89373        1.36483
H          2.86707       -2.20777       -1.69547
H          1.73546       -2.99979       -0.56375
H          5.62806       -2.87458       -0.78723
H          5.27905       -3.40366        0.87988
