20

O          1.10061        0.03190       -0.06045
C          2.51406        0.02490       -0.01405
C          3.05281        1.13435        0.87361
C          4.46267        0.65832        1.17765
C          4.30760       -0.85403        1.39744
C          3.03555       -1.25717        0.62919
C          5.52553       -1.61745        0.95523
C          6.25770       -2.39259        1.76527
H          0.82387        0.89341       -0.41680
H          2.90382        0.11961       -1.03454
H          2.45821        1.22799        1.79044
H          3.03748        2.10719        0.37272
H          4.87977        1.15885        2.05761
H          5.12051        0.87743        0.32709
H          4.12603       -1.03176        2.46626
H          2.29500       -1.67349        1.32400
H          3.21137       -2.02692       -0.13117
H          5.81841       -1.53076       -0.08979
H          6.00922       -2.51891        2.81452
H          7.12696       -2.92370        1.38950
