16

C          1.08424       -0.03294        0.04264
C          2.60424       -0.03294        0.04264
C          3.90810       -0.03294        0.04264
C          5.42810       -0.03294        0.04264
O          5.90676       -0.75509       -1.08428
C          5.97078        1.39222        0.05405
C          5.52940        2.19113       -1.14808
O          5.26058        1.69690       -2.24084
H          0.71106       -0.49521        0.96071
H          0.71115       -0.59682       -0.81683
H          0.71125        0.99335       -0.01609
H          5.77546       -0.55886        0.93846
H          5.54970       -0.29289       -1.87167
H          7.06571        1.39856        0.05655
H          5.61758        1.92189        0.94628
H          5.53361        3.28553       -1.01465
