19

C          1.08911       -0.11004        0.06716
N          2.53926        0.06141        0.06688
C          3.19139       -1.05184        0.06896
N          4.57079       -1.22412        0.06925
C          5.35022        0.02568        0.06686
C          5.29766       -2.42437        0.07156
C          4.59936       -3.77614        0.07423
N          6.59087       -2.52672        0.07173
H          0.61388        0.87583        0.06520
H          0.75080       -0.64085        0.96333
H          0.75081       -0.64441       -0.82691
H          2.63898       -2.00212        0.07092
H          4.73859        0.93359        0.06507
H          5.98345        0.07255       -0.82619
H          5.98342        0.07600        0.95972
H          3.51428       -3.72889        0.07411
H          4.91573       -4.33294        0.96257
H          4.91575       -4.33650       -0.81188
H          7.05743       -1.62200        0.06976
