18

C          0.82326        0.28393        0.44793
C          2.24849        0.01111       -0.00656
C          3.17589        1.22269        0.08390
C          4.58512        0.90829       -0.40663
O          2.64374        2.38300       -0.61682
C          2.83802        3.28283        0.50552
C          3.13851        2.05603        1.37037
O          3.31753        1.85231        2.55188
H          0.22253       -0.62784        0.35558
H          0.34974        1.06088       -0.15934
H          0.78767        0.59901        1.49514
H          2.22336       -0.35441       -1.04130
H          2.65490       -0.80477        0.60385
H          4.56702        0.55126       -1.44200
H          5.04926        0.13486        0.21439
H          5.22852        1.79356       -0.37273
H          1.93315        3.83229        0.76570
H          3.68926        3.95034        0.35099
