20

C          1.01727        0.01791        0.09157
C          2.53324       -0.04870        0.13295
C          3.24755        1.04974        0.97202
C          4.22410       -0.05271        1.43736
O          5.32131       -0.04057        1.95222
C          3.23018       -1.17816        0.99372
C          2.44620       -1.76421        2.16575
C          3.86855       -2.27217        0.14229
H          0.68814        0.87694       -0.50220
H          0.58446        0.11737        1.09151
H          0.60658       -0.88555       -0.37046
H          2.90427       -0.04160       -0.90425
H          2.66376        1.46955        1.79692
H          3.70668        1.85374        0.39351
H          2.01497       -0.97916        2.79687
H          3.09505       -2.37650        2.80169
H          1.62677       -2.39747        1.81080
H          4.47901       -1.85172       -0.66437
H          3.10014       -2.90513       -0.31464
H          4.51852       -2.91215        0.74868
