14

C          1.08571        0.08109        0.01621
C          2.60924        0.12125       -0.00854
C          3.13929        0.42555       -1.39725
O          2.44490        0.56617       -2.39999
C          3.11983        1.11287        0.95614
C          3.52364        1.90564        1.76482
C          3.99583        2.84497        2.75254
O          4.11741        2.51384        3.92266
H          0.70311       -0.67250       -0.68119
H          0.65332        1.04711       -0.27042
H          0.71458       -0.16627        1.01703
H          2.99203       -0.87107        0.25916
H          4.23998        0.47104       -1.47804
H          4.23484        3.85419        2.37998
