14

O         -1.09091        0.47010       -0.84796
C          0.28847        0.30393       -1.30890
C          0.81047       -0.93467       -0.63719
O         -0.28396       -1.44460        0.19043
C         -1.14562       -0.29165        0.38795
C         -0.44881        0.56476        1.42557
C          0.81264        0.91730        1.09533
C          1.33786        0.43159       -0.20837
H          0.54921        0.50685       -2.33681
H          1.44372       -1.61572       -1.18574
H         -2.16678       -0.58542        0.63985
H         -0.93973        0.85499        2.34210
H          1.43273        1.52857        1.74048
H          2.34708        0.71075       -0.47784
