19

N          1.08917        0.25108        0.51660
C          2.51367        0.02978        0.17395
C          2.70871       -1.32684       -0.53408
N          2.30773       -1.10053       -1.94227
C          3.39727       -0.74886       -2.83856
C          2.59988        0.35045       -2.18687
C          2.99358        1.03915       -0.90023
N          4.43861        1.29640       -0.87642
H          0.77329       -0.50672        1.12247
H          0.54481        0.13095       -0.34330
H          3.09955        0.09886        1.09600
H          2.08931       -2.11066       -0.08550
H          3.75156       -1.66071       -0.45471
H          3.21493       -0.93414       -3.89270
H          4.41439       -0.94896       -2.53357
H          1.84792        0.87831       -2.75544
H          2.47580        2.00069       -0.80463
H          4.94899        0.41699       -0.86163
H          4.66740        1.76055        0.00254
