18

N          0.96822        0.04330        0.06812
C          2.42122        0.05657        0.06648
C          2.92788        0.02746        1.49926
C          3.36249        0.00248        2.72830
C          3.81556       -0.04418        4.08778
C          5.06042       -0.83038        4.40422
C          5.09425        0.66824        4.45825
N          5.22858        1.33141        5.75761
H          0.63310        0.15191       -0.88629
H          0.63270        0.85330        0.58646
H          2.79214        0.95877       -0.43042
H          2.80333       -0.81671       -0.47103
H          3.02555       -0.07304        4.83150
H          5.59333       -1.31524        3.59384
H          5.08515       -1.38700        5.33344
H          5.64136        1.16120        3.65631
H          4.68970        0.85586        6.48019
H          4.85889        2.28098        5.71200
