16

N          1.07369        0.03054       -0.06030
C          2.33466        0.03054       -0.06030
C          3.85466        0.03054       -0.06030
C          4.39155       -1.32207       -0.59215
C          5.18249       -1.23753       -1.84997
C          5.47216       -0.06127       -2.42246
C          5.04336        1.26118       -1.88168
N          4.48531        1.26618       -0.54078
H          4.08741        0.02479        1.01514
H          3.57206       -2.03424       -0.74448
H          5.04828       -1.76117        0.17342
H          5.53397       -2.16328       -2.29938
H          6.05546       -0.04770       -3.34150
H          4.33633        1.71312       -2.58499
H          5.92629        1.91257       -1.86041
H          3.85469        2.05850       -0.42667
