22

C          1.41444       -0.88906       -0.32822
C          2.43951        0.16840        0.05919
O          3.55750       -0.47407        0.66759
C          2.92897        0.94750       -1.12877
C          1.99229        1.78555       -1.96709
C          3.05087        2.47241       -1.13515
C          2.57259        3.30543        0.02706
C          4.24269        3.06399       -1.84566
H          1.14069       -1.49287        0.54375
H          1.81754       -1.57636       -1.07984
H          0.50563       -0.43323       -0.73337
H          1.99883        0.81395        0.82194
H          3.90724       -1.11857        0.02997
H          3.67262        0.38277       -1.68455
H          0.95567        1.87496       -1.66195
H          2.11931        1.75673       -3.04489
H          1.65057        2.91819        0.47396
H          2.35671        4.32621       -0.30650
H          3.33890        3.35173        0.80553
H          4.56387        2.44894       -2.69289
H          5.08801        3.15592       -1.15591
H          4.00011        4.06139       -2.22886
