18

C          2.75311       -1.47918        0.53356
C          2.66099       -0.07325        0.00313
C          1.88022        0.22102       -1.05066
C          3.43034        0.99188        0.74735
C          4.95054        0.82585        0.74066
O          5.55462       -0.06827        0.14203
C          5.72342        1.85371        1.56037
O          7.12477        1.63164        1.52284
H          2.10129       -2.16764       -0.01550
H          2.45206       -1.50793        1.58576
H          3.77284       -1.86602        0.45390
H          1.30821       -0.54753       -1.56425
H          1.78236        1.23372       -1.42896
H          3.09799        1.00185        1.79166
H          3.21969        1.98130        0.32379
H          5.39648        1.79521        2.60236
H          5.52232        2.85179        1.16426
H          7.25269        0.75999        1.09452
