13

C          1.26381        0.13855        0.01889
N          2.55450        0.11879        0.03388
N          3.06180        1.15019       -0.74823
C          4.35480        1.14555       -0.74471
C          5.11262        2.15309       -1.50872
C          6.45127        2.14508       -1.50265
C          7.19582        3.10945       -2.23393
N          7.79938        3.89835       -2.83214
H          0.69497       -0.61229        0.58825
H          0.67970        0.88491       -0.54707
H          4.93976        0.39844       -0.17818
H          4.53013        2.88227       -2.06165
H          7.01867        1.40922       -0.94465
