22

O          1.29445        1.03053       -0.44827
C          2.30272        0.16076        0.04935
C          2.83016       -0.73677       -1.07989
C          3.94922       -1.66264       -0.57943
C          3.43228       -2.78913        0.31591
C          2.31024       -3.57922       -0.35321
C          1.18677       -2.67525       -0.85269
C          1.71981       -1.56181       -1.75208
H          0.94083        1.52191        0.31270
H          1.87766       -0.42002        0.87291
H          3.11290        0.77947        0.45022
H          3.24725       -0.07480       -1.85069
H          4.70953       -1.08407       -0.04167
H          4.45325       -2.10805       -1.44714
H          3.07379       -2.37626        1.26598
H          4.25830       -3.46621        0.56279
H          1.90623       -4.31381        0.35264
H          2.72246       -4.14382       -1.19847
H          0.65323       -2.24307        0.00178
H          0.45655       -3.27520       -1.40742
H          0.89275       -0.91746       -2.07009
H          2.12376       -2.01485       -2.66719
