18

C          0.97269        0.06379        0.07201
C          2.49269        0.06379        0.07201
C          3.79654        0.06379        0.07201
C          5.31654        0.06379        0.07201
C          5.80775       -1.02884        0.99296
C          6.07187       -0.79031        2.29015
C          6.04012       -2.38455        0.37806
O          4.82508       -2.92200       -0.11734
H          0.59948        0.70140       -0.73421
H          0.59958        0.44306        1.02740
H          0.59977       -0.95334       -0.07709
H          5.66939        1.04592        0.40832
H          5.69364       -0.08240       -0.94589
H          5.91384        0.19135        2.72769
H          6.43708       -1.56961        2.95279
H          6.44573       -3.09619        1.10561
H          6.75344       -2.31457       -0.44814
H          4.13806       -2.73002        0.54466
