20

C          0.83272       -0.00668        0.13169
C          2.36016       -0.03141        0.06171
C          2.98124       -0.67272        1.31171
O          2.53046       -2.00840        1.51271
C          2.82300       -0.74533       -1.18227
O          2.49484       -0.07582       -2.41144
C          3.88354       -0.13993       -2.07024
C          4.70346       -0.98419       -2.97766
H          0.49467        0.51631        1.03242
H          0.40802       -1.01545        0.13606
H          0.41424        0.51620       -0.73537
H          2.70664        1.00965        0.02358
H          2.73668       -0.09382        2.20856
H          4.07228       -0.70534        1.22172
H          1.59587       -1.97133        1.77815
H          2.70029       -1.82106       -1.14881
H          4.37467        0.77911       -1.78166
H          4.17346       -1.88854       -3.29241
H          5.62648       -1.28666       -2.47394
H          4.97527       -0.41844       -3.87471
