16

C          1.05562        0.01731       -0.10554
C          2.54704        0.05203       -0.06423
C          3.23150        0.87325        0.74141
C          4.75150        0.87325        0.74141
C          6.05535        0.87325        0.74141
C          7.48344        0.83264        0.76107
C          8.21282        0.07351       -0.31422
O          8.09110        1.50122       -0.35264
H          0.71945       -0.71838       -0.84332
H          0.64963        0.99147       -0.39627
H          0.64437       -0.27214        0.86646
H          3.07839       -0.62513       -0.72876
H          2.74526        1.56808        1.41870
H          7.96735        0.93397        1.72513
H          7.64195       -0.49599       -1.03729
H          9.18418       -0.34093       -0.07760
