20

C          2.57930        0.60361        0.94787
C          2.56804       -0.45797       -0.14218
C          3.48331       -1.59340        0.19577
C          3.17762       -2.51734        1.33709
C          3.12310       -3.02860       -0.07745
C          4.33420       -3.67272       -0.67204
C          5.17016       -2.48263       -1.13779
O          4.86179       -1.41279       -0.22133
H          1.99012        1.47334        0.64262
H          3.59857        0.93562        1.16938
H          2.14744        0.21229        1.87576
H          2.88361       -0.00638       -1.09066
H          1.54196       -0.81424       -0.28604
H          2.23648       -2.39828        1.86224
H          4.00021       -2.81204        1.97838
H          2.18361       -3.26174       -0.55506
H          4.10449       -4.35875       -1.49050
H          4.87559       -4.23147        0.10096
H          4.86894       -2.16294       -2.14211
H          6.24258       -2.69050       -1.13250
