17

C         -0.44521        1.30443        0.97034
C         -1.69706        0.60084        0.43681
N         -0.87322       -0.00501       -0.58804
C         -0.43580       -1.28091       -0.25687
N          0.74263       -1.71633        0.06431
N          1.75206       -0.80991        0.02819
C          1.56049        0.48547       -0.61774
C          0.14962        1.01931       -0.42065
H          0.03688        0.78116        1.80395
H         -0.56874        2.35772        1.23327
H         -2.43872        1.27296       -0.01197
H         -2.19940       -0.09634        1.11253
H         -1.27426       -2.00027       -0.24359
H          2.21325       -0.73299        0.93415
H          1.75336        0.36317       -1.69005
H          2.29990        1.20276       -0.24657
H         -0.04168        1.84905       -1.11852
