24

C          2.95595       -0.27637       -1.45459
C          2.53633        0.11510       -0.04094
C          3.05712        1.49410        0.45189
C          2.44202        2.62583       -0.39744
C          2.57691        1.69265        1.90599
C          4.58363        1.49787        0.46460
C          5.39868        2.33300       -0.20421
C          6.89056        2.27076       -0.15507
H          2.54460       -1.26069       -1.70295
H          4.04367       -0.34137       -1.54967
H          2.58243        0.43191       -2.19888
H          2.87703       -0.67386        0.64335
H          1.43927        0.10305        0.00606
H          1.34738        2.58276       -0.37666
H          2.75250        2.57117       -1.44603
H          2.73550        3.61215       -0.01779
H          1.48192        1.70903        1.96096
H          2.94343        2.63825        2.32308
H          2.92551        0.88471        2.56030
H          5.04065        0.72543        1.08331
H          4.99122        3.11605       -0.83717
H          7.25436        1.46495        0.48899
H          7.28942        3.21790        0.21997
H          7.28612        2.10790       -1.16349
