18

C          1.10766       -0.01175       -0.04180
C          2.61836       -0.14821       -0.13623
C          3.01127       -1.36265       -0.94361
O          2.22339       -2.16694       -1.42265
O          4.36755       -1.43153       -1.03494
C          4.88782       -2.55207       -1.75996
C          5.69755       -2.02886       -2.90573
C          5.41296       -2.26062       -4.19408
H          0.83563        0.86573        0.55190
H          0.66326       -0.89540        0.42896
H          0.66205        0.09453       -1.03669
H          3.03892       -0.24813        0.87001
H          3.03582        0.74443       -0.61396
H          4.11381       -3.24800       -2.10163
H          5.54343       -3.10795       -1.08121
H          6.57154       -1.43452       -2.65223
H          4.54686       -2.84467       -4.49053
H          6.04128       -1.86070       -4.98536
