18

C          0.96348        0.15367        0.00438
C          2.44440        0.05361        0.00042
C          3.20464       -1.05606       -0.01422
C          4.65487       -0.68216       -0.00827
O          5.26547       -1.14489       -1.19487
C          4.58947        0.81848       -0.00381
C          5.80367        1.67063        0.00476
C          3.30637        1.21639        0.00846
H          0.49728       -0.83726        0.00325
H          0.61090        0.69090       -0.88197
H          0.61488        0.68697        0.89456
H          2.84561       -2.07368       -0.02266
H          5.17470       -1.07938        0.86844
H          4.77537       -0.73371       -1.92714
H          6.71201        1.05970        0.02044
H          5.81988        2.31197        0.89142
H          5.84017        2.30025       -0.88958
H          2.95257        2.23677        0.02096
