20

N          1.09845        0.16966        0.21203
C          2.54896        0.07895        0.02003
C          2.99434       -1.33297       -0.38182
C          2.64527       -1.66313       -1.83297
N          3.19231       -0.66416       -2.75019
C          2.69647        0.67982       -2.44741
C          3.00406        1.06538       -1.02539
C          3.69102        2.17883       -0.71306
H          0.81477       -0.50199        0.92240
H          0.61831       -0.10492       -0.64145
H          3.01085        0.31514        0.98680
H          2.55101       -2.08189        0.28587
H          4.08270       -1.41298       -0.25104
H          1.56002       -1.74784       -1.96330
H          3.07042       -2.64073       -2.08581
H          2.93342       -0.90201       -3.70647
H          1.61564        0.73520       -2.62688
H          3.16352        1.38130       -3.14830
H          4.04046        2.86375       -1.47860
H          3.92176        2.42852        0.31779
