16

C          3.02206       -0.12730       -1.09127
C          2.48118        0.07959        0.11541
C          3.20062        0.28684        1.36478
C          2.50625        0.50491        2.49515
C          4.71726        0.26010        1.39494
O          5.21967       -1.00471        0.93736
C          5.25802       -1.98717        1.86643
O          4.97130       -1.89665        3.04903
H          2.38464       -0.28148       -1.95643
H          4.09215       -0.16032       -1.26359
H          1.39300        0.08933        0.17826
H          1.42121        0.52817        2.51596
H          3.00979        0.65051        3.44727
H          5.12274        0.49440        2.38790
H          5.11081        1.03198        0.72291
H          5.60690       -2.91385        1.38582
