14

C          0.96429       -0.02089        0.03594
C          2.48160        0.04524        0.06963
C          2.95091        1.38505        0.44642
C          3.34845        2.48154        0.73923
C          3.83702        3.80091        1.07178
O          4.45761        4.45372        0.24388
C          3.59039        4.34566        2.38765
C          3.39263        4.81153        3.47782
H          0.63374       -1.02751       -0.23933
H          0.55370        0.68372       -0.69553
H          0.53528        0.22285        1.01395
H          2.87843       -0.22209       -0.91615
H          2.86243       -0.69498        0.78194
H          3.22603        5.23792        4.44021
