18

C          1.09378       -0.14182        0.64925
C          2.59799       -0.09280        0.52856
C          3.07389        1.14701       -0.19322
C          3.59678       -0.40663        1.64713
C          3.17621       -1.50420        0.75586
C          4.08029       -2.28620       -0.11251
O          4.57547       -1.66444       -1.19888
O          4.28407       -3.47200        0.11328
H          0.61275        0.55719       -0.04283
H          0.75881        0.08539        1.66786
H          0.71389       -1.13526        0.37262
H          2.62344        1.23764       -1.18817
H          2.75149        2.01977        0.38826
H          4.15990        1.21956       -0.29057
H          3.24194       -0.35174        2.67519
H          4.63028       -0.07800        1.55166
H          2.51665       -2.20569        1.27734
H          4.24949       -0.75860       -1.26307
