20

C          0.96836        0.16674        0.01700
C          2.48387        0.06970       -0.00380
O          3.04233        1.12542        0.79279
C          4.35026        0.69038        1.16708
C          4.24573       -0.80320        1.39321
C          3.02370       -1.23872        0.58977
C          3.36307       -2.26391       -0.46197
C          2.82504       -3.48914       -0.51370
H          0.64396        1.13222       -0.38604
H          0.58538        0.11255        1.04192
H          0.51004       -0.63142       -0.57416
H          2.83663        0.21845       -1.03278
H          4.67909        1.22922        2.06009
H          5.03939        0.91950        0.34663
H          4.06250       -0.99693        2.45743
H          5.17704       -1.31715        1.13284
H          2.29133       -1.66218        1.29033
H          4.09364       -1.98106       -1.21838
H          2.09411       -3.82559        0.21548
H          3.10970       -4.18885       -1.29400
