20

C          1.07407       -0.04765       -0.01807
C          2.60457       -0.11572       -0.06010
C          3.06043       -0.94481       -1.26195
O          3.10816        1.20951       -0.23252
C          3.12778       -0.70217        1.23510
C          4.60778       -0.81063        1.52151
C          3.76962        0.16834        2.29067
O          3.48211       -0.17246        3.65467
H          0.67163        0.40189       -0.93261
H          0.73519        0.57597        0.81706
H          0.63052       -1.04268        0.10102
H          2.68830       -0.51330       -2.19827
H          2.71596       -1.98125       -1.19252
H          4.15341       -0.95392       -1.34229
H          2.69024        1.58670       -1.02454
H          2.51806       -1.53681        1.56710
H          5.30858       -0.40645        0.79986
H          4.96527       -1.69831        2.02892
H          3.93372        1.21956        2.07599
H          3.39561       -1.12925        3.78763
