18

C          1.02951       -0.07154       -0.05008
C          2.54702       -0.09175       -0.02919
C          3.05368       -1.09542        0.99372
C          3.48830       -1.95636        1.87117
C          3.99496       -2.96003        2.89408
C          4.28595       -4.21577        2.53273
C          4.76992       -5.20364        3.46782
C          5.06338       -6.46033        3.11443
H          0.66792        0.65180       -0.78744
H          0.62520        0.20742        0.92899
H          0.62539       -1.05584       -0.31030
H          2.93294        0.90170        0.22291
H          2.93312       -0.36262       -1.01762
H          4.10143       -2.59694        3.91085
H          4.15825       -4.52003        1.49587
H          4.89866       -4.90350        4.50591
H          4.95429       -6.81521        2.09465
H          5.42455       -7.16954        3.85282
