16

C          0.91172       -0.01479        0.11048
C          2.43320        0.03613        0.03406
C          3.01995        1.14473        0.89017
O          4.31134        0.65707        1.25891
C          4.15081       -0.76123        1.29857
O          2.97837       -1.16353        0.58919
C          2.85771        0.16014       -1.42018
C          3.22186        0.26652       -2.66762
H          0.57606       -0.16249        1.14326
H          0.51851       -0.86057       -0.46590
H          0.45614        0.90303       -0.27642
H          2.45293        1.29209        1.81714
H          3.11347        2.10818        0.37997
H          4.05608       -1.08201        2.34056
H          5.03065       -1.24041        0.85921
H          3.52441        0.34708       -3.68617
