22

C          0.86630       -0.06164       -0.06648
C          2.39754       -0.04547       -0.01193
C          2.94078       -1.40260       -0.47658
C          4.46557       -1.49407       -0.54565
C          5.03956       -0.66759       -1.69052
O          5.32589        0.68880       -1.38654
C          4.42103        1.39813       -0.55462
C          2.93959        1.14461       -0.82147
H          0.46398       -0.88695        0.53074
H          0.50577       -0.17759       -1.09409
H          0.45300        0.86978        0.33504
H          2.68189        0.09284        1.03971
H          2.51923       -1.65689       -1.45806
H          2.58372       -2.17598        0.21589
H          4.71842       -2.54637       -0.72519
H          4.91117       -1.21096        0.41412
H          4.39302       -0.70222       -2.57483
H          5.99425       -1.11094       -1.99545
H          4.62784        2.45963       -0.73160
H          4.67945        1.21112        0.49360
H          2.75158        1.00090       -1.89191
H          2.38925        2.04258       -0.51289
