18

C          1.01403        2.08735       -1.02332
O          2.43363        2.04593       -1.01402
C          2.93207        1.37437        0.14379
C          4.44093        1.38648        0.12411
C          5.16444        0.25481        0.08842
C          5.13615        2.63370        0.17903
C          5.73485        3.67378        0.21607
C          6.47327        4.93539        0.24711
H          0.69035        2.63736       -1.91106
H          0.63644        2.60483       -0.13593
H          0.60340        1.07424       -1.07153
H          2.54874        0.34651        0.15002
H          2.57308        1.87892        1.04921
H          4.69225       -0.72115        0.05331
H          6.25051        0.27803        0.08547
H          6.90426        5.10934        1.23741
H          5.81785        5.77767        0.00844
H          7.29076        4.92496       -0.48077
