18

C          0.92897        0.03355       -0.29419
C          2.41781       -0.00798       -0.00429
C          3.28286       -0.77583       -0.99181
C          3.31027        0.72864       -0.99022
C          2.71132       -0.01175        1.49542
O          2.13528       -1.17779        2.06988
C          4.15911       -0.02257        1.75612
C          5.32553       -0.04330        2.04482
H          0.72234        0.08563       -1.36930
H          0.47466        0.91158        0.17581
H          0.43585       -0.86168        0.09146
H          2.80009       -1.27111       -1.82832
H          4.16912       -1.29534       -0.64662
H          2.84653        1.24290       -1.82765
H          4.20899        1.22301       -0.64092
H          2.25100        0.86390        1.96476
H          2.57150       -1.93019        1.63766
H          6.35063       -0.06691        2.32766
