18

C          1.08257        0.05403        0.16068
C          2.56437       -0.15661       -0.13662
C          2.89648       -1.63710       -0.41087
C          2.65641       -1.81369       -1.91957
O          3.41744       -2.88621       -2.44299
C          3.08695       -0.49527       -2.49292
O          2.09981        0.53797       -2.50309
C          3.01174        0.53146       -1.40283
H          0.78162       -0.51455        1.04675
H          0.44407       -0.26539       -0.67023
H          0.87419        1.11268        0.34612
H          3.15113        0.19980        0.71727
H          2.31648       -2.34080        0.19304
H          3.95612       -1.81895       -0.18220
H          1.59714       -2.00053       -2.12876
H          4.34877       -2.74497       -2.20250
H          3.88831       -0.49129       -3.21147
H          3.76744        1.29581       -1.31065
