24

C          2.08374        0.42718       -1.26201
C          2.32093       -0.09621        0.14564
C          2.88782       -1.50834        0.10294
C          3.21507       -2.14379        1.48322
C          2.87385       -3.50482        0.83665
C          1.90434       -2.71402       -0.09089
C          1.69671       -3.22271       -1.51024
C          1.04344       -4.59904       -1.51375
H          1.70977        1.45473       -1.22715
H          1.35111       -0.18261       -1.79579
H          3.01239        0.42368       -1.84193
H          1.38528       -0.06606        0.71619
H          3.02908        0.56939        0.65218
H          3.76088       -1.55470       -0.56524
H          2.53191       -1.85714        2.29296
H          4.24441       -2.02672        1.83262
H          2.41027       -4.24126        1.49878
H          3.71950       -3.97128        0.31812
H          0.93063       -2.54389        0.39440
H          1.05051       -2.52196       -2.05025
H          2.64602       -3.26520       -2.05557
H          0.65952       -4.89017       -0.53168
H          1.76512       -5.35804       -1.83322
H          0.21231       -4.62264       -2.22552
