18

N          2.93220        1.33270       -0.12667
C          2.49623       -0.06726       -0.02398
C          3.03603       -1.00259       -1.13346
C          2.52936       -0.54140       -2.49029
C          2.09474       -0.14578       -3.65418
C          4.53693       -0.98236       -1.23033
C          5.36417       -1.50691       -0.07823
N          5.31463       -2.22186       -1.34535
H          2.43638        1.89264        0.56484
H          2.65682        1.70219       -1.03954
H          1.40182       -0.08869       -0.03539
H          2.81564       -0.44460        0.95477
H          2.66447       -2.01810       -0.94848
H          1.74823        0.17295       -4.61031
H          4.93439       -0.10879       -1.73854
H          4.87212       -1.97033        0.76758
H          6.28897       -0.99016        0.15086
H          4.71651       -3.04667       -1.27922
