22

C          0.62668        0.40154       -0.20763
C          2.05864        0.82499       -0.17737
C          2.87552        0.54347        0.84934
C          4.30339        1.00643        0.95843
C          4.49976        1.95568        2.15314
C          3.75984        3.29079        1.96412
C          5.99252        2.17629        2.42673
O          6.19216        3.05025        3.53100
H          0.27471        0.33554       -1.24127
H          0.00894        1.13694        0.31721
H          0.48646       -0.57905        0.25811
H          2.41840        1.41090       -1.02045
H          2.49249       -0.03106        1.69026
H          4.63098        1.49288        0.03269
H          4.93381        0.11358        1.08262
H          4.07771        1.48224        3.05196
H          3.26564        3.36110        0.98730
H          4.42502        4.15554        2.04877
H          2.98418        3.39787        2.72937
H          6.48674        1.22605        2.66029
H          6.49618        2.61181        1.55628
H          5.53401        2.83155        4.21243
