18

C          1.22396        0.15177       -0.10206
C          2.55503        0.08702        0.07307
C          3.27216       -1.23514        0.22166
O          4.12067       -1.18710        1.37232
C          5.22096       -0.29307        1.18349
C          4.76824        1.08913        0.82703
C          3.67899        1.79873        1.59072
C          3.41083        1.27725        0.19948
H          0.61098       -0.74060       -0.15934
H          0.71871        1.11070       -0.17296
H          3.86229       -1.46605       -0.67290
H          2.56430       -2.05697        0.37494
H          5.87517       -0.69445        0.40102
H          5.79530       -0.26802        2.11481
H          5.59112        1.69676        0.46990
H          3.75701        2.87202        1.71599
H          3.22446        1.29001        2.43432
H          3.33867        1.99455       -0.61149
