20

C          0.95186       -0.05821        0.13424
C          2.44532       -0.03813        0.05491
C          3.16977        0.47261       -0.96158
C          2.55726        1.12179       -2.17594
C          4.63521        0.43264       -0.93067
C          5.32120        1.02080        0.06451
C          5.34927       -0.25824       -2.07184
O          5.02440       -1.64217       -2.09746
H          0.63484       -0.54591        1.06163
H          0.52283       -0.62366       -0.69876
H          0.54364        0.95721        0.13936
H          2.95872       -0.49324        0.90018
H          1.46478        1.16212       -2.12799
H          2.81451        0.57754       -3.08938
H          2.91108        2.15403       -2.27161
H          4.81739        1.54039        0.87543
H          6.40627        1.00913        0.09221
H          6.43687       -0.17938       -1.97160
H          5.08467        0.18138       -3.03802
H          5.09812       -1.96021       -1.18174
