16

C         -1.50744        1.42737       -0.20582
C         -1.63426       -0.04791       -0.65227
C         -0.71920       -0.81007        0.29017
C          0.23723       -1.87266       -0.12625
C          1.48156       -1.44693        0.10396
N          1.55902       -0.13611        0.50440
C          0.33071        0.25477        0.48965
N         -0.21040        1.51048        0.46876
H         -2.31623        1.71942        0.46973
H         -1.51460        2.08980       -1.07787
H         -1.32173       -0.16636       -1.69609
H         -2.67093       -0.39219       -0.57698
H         -1.20187       -1.03708        1.24845
H         -0.03918       -2.85003       -0.48444
H          2.38502       -2.00994       -0.08561
H         -0.26155        1.92494        1.39542
