18

C          1.40947        0.87473        0.56038
O          2.39826        0.00726        0.01666
C          3.05667        0.43782       -1.11730
C          3.14601        1.71274       -1.53942
C          3.83563        2.07140       -2.75379
C          4.40974        1.14997       -3.53559
C          4.39390       -0.31338       -3.20677
C          3.69123       -0.69451       -1.89185
H          0.94981        0.36890        1.41482
H          0.62552        1.07175       -0.17819
H          1.84842        1.80873        0.92433
H          2.71584        2.53770       -0.98410
H          3.86633        3.12438       -3.02169
H          4.91067        1.45618       -4.44984
H          5.42990       -0.67338       -3.17379
H          3.91346       -0.84758       -4.03589
H          4.41191       -1.20397       -1.24094
H          2.91241       -1.43633       -2.11887
