18

C          0.84395        0.01310       -0.03544
C          2.37511       -0.01987       -0.08743
C          2.96086       -0.14940        1.31996
O          2.74799       -1.20915       -0.84767
C          3.26473       -0.71031       -2.03010
C          3.39626        0.61006       -2.10719
C          2.94104        1.16000       -0.86404
C          3.07297        2.43739       -0.49291
H          0.45799       -0.88385        0.46343
H          0.41284        0.00893       -1.04382
H          0.47114        0.89368        0.49664
H          2.62650       -1.07896        1.79446
H          2.66614        0.68752        1.96265
H          4.05558       -0.19242        1.29160
H          3.52394       -1.45717       -2.76053
H          3.79410        1.16466       -2.94096
H          3.53223        3.17336       -1.14544
H          2.74239        2.77851        0.48277
