18

C          0.87098        0.22765        0.86831
C          2.35746        0.31959        0.97899
C          3.17512       -0.71762        0.73892
C          4.63816       -0.71108        0.84860
O          5.44842       -1.57811        0.04072
C          5.46568       -0.18539       -0.30779
C          6.63161        0.65492       -0.02068
C          6.61535        1.97050        0.23100
H          0.43252        1.23063        0.87600
H          0.45776       -0.32741        1.71598
H          0.56969       -0.25993       -0.06410
H          2.77523        1.27946        1.27328
H          2.73685       -1.67354        0.45625
H          4.99915       -0.53294        1.85722
H          4.95102        0.07671       -1.22741
H          7.59261        0.14352       -0.01910
H          5.68711        2.53353        0.24069
H          7.53631        2.50936        0.43268
