18

C          1.59767       -0.75035       -0.89785
C          2.41153        0.09089        0.07696
C          2.92481        1.38618       -0.51129
C          1.88905        2.39403       -0.87822
O          0.70944        2.27489       -0.56943
C          4.24224        1.63111       -0.63491
C          4.89365        2.84141       -1.08762
C          6.22617        2.97320       -1.11974
H          1.32246       -1.70114       -0.42939
H          2.16774       -0.97326       -1.80579
H          0.66860       -0.24971       -1.19020
H          3.25117       -0.52198        0.43119
H          1.80741        0.31041        0.96694
H          2.23101        3.26471       -1.45490
H          4.92836        0.84033       -0.32765
H          4.29744        3.69467       -1.39485
H          6.89904        2.17753       -0.81824
H          6.67875        3.90487       -1.44802
