18

O          0.69035        0.40095        0.54207
C          2.04958        0.13637        0.26960
C          2.96452        1.23951        0.77765
C          4.32513        0.56234        0.96098
C          4.05254       -0.95053        0.96495
C          2.53409       -1.07757        1.04897
C          4.53675       -1.66077       -0.28519
O          5.05688       -1.10613       -1.24815
H          0.40138        1.09169       -0.08000
H          2.17703       -0.01917       -0.80830
H          2.60210        1.63332        1.73595
H          3.01119        2.08650        0.08599
H          4.76559        0.87626        1.91427
H          5.01931        0.87134        0.17341
H          4.54505       -1.43743        1.81266
H          2.13855       -2.00898        0.63065
H          2.19710       -1.02305        2.09275
H          4.38658       -2.75484       -0.28935
