14

N          1.02403        0.05984       -0.03985
C          2.18409        0.06132       -0.04488
C          3.71709        0.06503       -0.04112
C          5.02094        0.06503       -0.04112
C          6.54094        0.06503       -0.04112
N          7.06529       -0.54602       -1.26220
C          8.52954       -0.56921       -1.27439
C          7.73792       -1.82653       -1.05327
H          6.88424       -0.42434        0.87957
H          6.86682        1.11161        0.01027
H          9.06731       -0.14122       -0.43604
H          8.99444       -0.41829       -2.24283
H          7.73223       -2.27185       -0.06570
H          7.67648       -2.53283       -1.87226
