16

O          0.94041        0.01901        0.33846
C          2.36355        0.02686        0.24586
C          2.81730       -1.21452       -0.47994
C          3.57412       -1.17582       -1.58665
C          3.98714        0.08628       -2.14822
C          3.63004        1.25720       -1.60051
C          2.80394        1.33320       -0.40438
C          2.44664        2.52891        0.09734
H          0.64992       -0.90465        0.37096
H          2.76177       -0.01385        1.26687
H          2.53541       -2.17563       -0.06289
H          3.89608       -2.08667       -2.08161
H          4.60122        0.06304       -3.04399
H          3.95783        2.18453       -2.06257
H          2.74972        3.46454       -0.35945
H          1.81658        2.58977        0.97996
