18

O          0.92953       -0.09115        0.31701
C          2.33011        0.19863        0.37410
C          3.12918       -0.60574        1.36967
C          3.25865       -0.88294       -0.11626
C          4.42122       -0.44297       -0.95955
C          4.94029        0.94155       -0.68536
C          4.15350        1.89976       -0.17124
C          2.69921        1.65305        0.16583
H          0.76050       -0.98810       -0.03961
H          2.57902       -1.30542        1.99070
H          3.94078       -0.11652        1.89515
H          2.86622       -1.83414       -0.45224
H          5.23572       -1.16782       -0.86234
H          4.10388       -0.46336       -2.01057
H          5.98214        1.14929       -0.90695
H          4.55219        2.89310        0.02503
H          2.08761        2.07401       -0.63892
H          2.45215        2.20303        1.08272
