16

C          1.21170        0.22863        0.28732
C          2.52868        0.02581        0.23030
C          3.52719        0.96983       -0.35255
C          4.74655        0.08850       -0.51662
C          4.28691       -1.29890       -0.10418
O          3.08258       -1.16462        0.65361
C          5.29474        0.03866       -1.92026
O          4.89847        0.72728       -2.85554
H          0.76115        1.14063       -0.08729
H          0.55394       -0.53252        0.69481
H          3.73916        1.77457        0.36123
H          3.16417        1.42148       -1.28000
H          5.55676        0.43636        0.13506
H          4.07369       -1.94765       -0.96355
H          5.03767       -1.80328        0.51299
H          6.14579       -0.65007       -2.06660
