16

C          1.12624       -0.09693       -0.49205
C          2.24572        0.15301        0.20100
O          2.75765        1.45844        0.10493
C          3.44751        1.96931        1.18675
C          3.85064        1.22238        2.22888
C          3.66770       -0.23016        2.26057
C          4.35952       -1.03930        1.19263
C          2.86772       -0.82822        1.12329
H          0.67224        0.67730       -1.10009
H          0.61354       -1.04980       -0.41871
H          3.58945        3.03201        1.09426
H          4.36103        1.69624        3.05958
H          3.52040       -0.66870        3.23983
H          4.73067       -2.01873        1.47850
H          5.00198       -0.52882        0.48317
H          2.26432       -1.70591        1.33408
