20

C          1.00158       -0.00900        0.18692
C          2.52640       -0.06750        0.05509
C          3.00578        1.20174       -0.68308
O          4.30342        1.03092       -1.25167
C          4.29109        0.02031       -2.26194
C          3.79011       -1.27679       -1.70828
C          2.99910       -1.34517       -0.62138
C          2.61733       -2.65616        0.00067
H          0.68563        0.94058        0.63210
H          0.62026       -0.81302        0.82387
H          0.51686       -0.09790       -0.79297
H          2.96710       -0.05576        1.06106
H          3.06632        2.03300        0.02924
H          2.30956        1.50941       -1.47306
H          5.32063       -0.10096       -2.61163
H          3.68062        0.34316       -3.11308
H          4.13072       -2.18106       -2.20419
H          3.10389       -3.50333       -0.49563
H          1.53764       -2.81696       -0.05279
H          2.92177       -2.67612        1.05278
