21

N          5.30395       -1.56100        0.27104
C          4.23325       -0.89270       -0.45093
C          4.73645        0.40230       -0.99967
C          4.20867        1.60085       -0.70623
C          4.77858        2.82758       -1.31307
C          4.09474        4.15851       -0.89958
C          5.49883        4.79607       -0.89569
C          6.05912        3.38278       -0.63486
H          4.95084       -2.43848        0.64806
H          5.55771       -0.99103        1.07697
H          3.37630       -0.74362        0.21512
H          3.90189       -1.52805       -1.27879
H          5.57915        0.33189       -1.68544
H          3.36556        1.68986       -0.02754
H          4.87853        2.74217       -2.40487
H          3.61831        4.15283        0.08838
H          3.39309        4.57608       -1.62702
H          5.68397        5.53375       -0.11103
H          5.79513        5.21811       -1.86269
H          6.16179        3.14398        0.43067
H          7.00120        3.15342       -1.14074
