22

C          0.92561        0.01838        0.09522
C          2.44523        0.01129        0.08003
C          3.00324        0.98838       -0.95601
C          4.53349        0.99054       -0.93663
C          5.15468        1.93899       -1.96439
C          4.75994        3.36938       -1.76162
C          5.11062        4.12965       -0.50871
O          5.86208        4.28611       -1.71965
H          0.55106       -0.68608        0.84469
H          0.52214       -0.27601       -0.87964
H          0.54018        1.01248        0.34123
H          2.79939       -1.00329       -0.13667
H          2.81341        0.27706        1.07750
H          2.62281        1.99389       -0.74180
H          2.64683        0.71237       -1.95564
H          4.89760       -0.02418       -1.13948
H          4.88434        1.25548        0.06776
H          4.86241        1.62983       -2.97496
H          6.24658        1.83797       -1.91269
H          3.88079        3.65927       -2.32150
H          5.58163        3.60671        0.31296
H          4.46538        4.94850       -0.21196
