11

N          1.24695       -0.11931       -0.24016
C          2.40218       -0.10985       -0.11407
C          3.82350       -0.03829        0.04145
C          4.48976        1.17545        0.10360
C          5.87126        1.15874        0.25867
C          6.50401       -0.06709        0.34196
N          5.83066       -1.23392        0.27764
N          4.47207       -1.22034        0.12547
H          3.95223        2.11567        0.03429
H          6.44083        2.08017        0.31376
H          7.57801       -0.15367        0.46386
