22

C          1.78072       -0.94159        0.85013
C          2.63427       -0.06590       -0.05510
C          3.06429        1.18691        0.65584
C          4.34420        1.52735        0.86909
C          4.84380        2.71456        1.55672
C          3.88990        3.72163        2.14885
C          6.17915        2.88801        1.65968
C          6.88824        4.02548        2.32873
H          1.44714       -1.83371        0.31080
H          0.89055       -0.40525        1.19700
H          2.34518       -1.26782        1.73027
H          2.05262        0.21593       -0.94032
H          3.49788       -0.64118       -0.40762
H          2.24699        1.81712        0.99082
H          5.11021        0.84746        0.49387
H          2.83502        3.48119        2.01118
H          4.04589        4.70582        1.69316
H          4.04914        3.80360        3.22990
H          6.85154        2.14797        1.22664
H          6.21219        4.76576        2.76386
H          7.52615        4.54049        1.60370
H          7.52474        3.64151        3.13204
