20

C          1.04084       -0.00331        0.07518
C          2.54687        0.02211        0.06674
C          3.21916        1.17904        0.03372
C          4.70375        1.30105       -0.01012
C          5.50188        0.00297        0.06001
C          4.75335       -1.32392       -0.07189
C          3.22721       -1.31615        0.06194
O          2.87224       -1.99810        1.26250
H          0.61083        1.00421        0.04417
H          0.66604       -0.49246        0.97949
H          0.66530       -0.54804       -0.79718
H          2.67151        2.12090        0.02524
H          5.01940        1.94706        0.81937
H          4.97284        1.83959       -0.92714
H          6.06380       -0.00653        1.00285
H          6.27774        0.03522       -0.71824
H          5.18641       -2.03005        0.65029
H          4.99874       -1.74248       -1.05633
H          2.81766       -1.91327       -0.76130
H          3.08249       -1.39210        1.99428
