19

N          0.97145        0.03023        0.00633
C          2.42754        0.02111        0.07052
C          3.22616       -0.81996       -0.88257
C          3.20425        0.67920       -1.03957
C          4.42394        1.49301       -0.71663
C          4.22517        2.99358       -0.87431
N          3.00049        3.55505       -0.69165
N          5.22222        3.77388       -1.14204
H          0.57634       -0.62203        0.68447
H          0.63656       -0.28817       -0.90339
H          2.82581        0.11440        1.07929
H          2.70814       -1.40811       -1.63173
H          4.13255       -1.28713       -0.51391
H          2.67638        1.06093       -1.90756
H          5.24313        1.18035       -1.37502
H          4.75375        1.31828        0.31485
H          2.32772        3.05617       -0.12011
H          3.03383        4.55714       -0.55165
H          6.08644        3.23154       -1.24791
