20

C          0.93006        0.16400       -0.35356
C          2.38512        0.05935        0.07331
O          3.17199       -0.20077       -1.09336
C          2.92561        1.32172        0.74633
O          2.88455        2.48270       -0.14770
C          2.57893        3.33061        0.99791
C          2.11032        2.10534        1.80132
C          2.57031        1.98900        3.23778
H          0.63340       -0.73235       -0.90973
H          0.76988        1.01735       -1.02062
H          0.26210        0.26531        0.50645
H          2.50322       -0.79607        0.74627
H          3.22874        0.65075       -1.57069
H          3.96869        1.14811        1.05163
H          1.80339        4.06596        0.76855
H          3.47953        3.83802        1.35945
H          1.02544        1.96994        1.72848
H          3.64923        2.14620        3.33365
H          2.33549        0.99574        3.63421
H          2.06373        2.72911        3.86539
