18

O          1.01430       -0.02407       -0.05162
C          2.44922        0.04693       -0.02505
C          3.06914        1.13618        0.87885
C          4.17566        0.12327        1.22859
C          3.16231       -0.99816        0.88146
C          3.69409       -2.23108        0.16807
C          4.66354       -3.05215        0.97789
O          5.06589       -2.75037        2.09801
H          0.72868        0.80535       -0.47175
H          2.84521        0.08039       -1.04919
H          2.44122        1.42357        1.72986
H          3.41104        2.03998        0.36755
H          4.52239        0.14444        2.26515
H          5.04387        0.17235        0.56120
H          2.54692       -1.28279        1.74812
H          4.20584       -1.95590       -0.76034
H          2.85941       -2.89056       -0.09823
H          5.02620       -3.96919        0.48370
