16

C          1.08553       -0.08917       -0.15145
C          2.61266       -0.13278       -0.11311
C          3.10663       -0.04553        1.33949
C          4.57794        0.00137        1.42568
C          5.77628        0.02146        1.51134
O          3.04642       -1.39119       -0.67311
C          3.14262       -1.43216       -2.02480
O          2.87725       -0.53294       -2.80561
H          0.70245        0.84120        0.27782
H          0.65922       -0.93364        0.40176
H          0.71592       -0.17287       -1.17876
H          3.02993        0.70433       -0.68819
H          2.75103       -0.91326        1.90812
H          2.69521        0.85203        1.81612
H          6.83822        0.02678        1.59366
H          3.49743       -2.42950       -2.32684
