18

C          0.94250       -0.02416        0.04693
C          2.28035       -0.04407        0.04666
C          3.05261       -0.77183       -0.93077
C          4.39362       -0.79259       -0.92698
C          5.11652       -1.55940       -1.97254
C          6.65183       -1.52429       -1.91788
O          6.71563       -2.96817       -2.06702
C          5.31034       -3.06047       -1.70884
H          0.40154        0.53791        0.80077
H          0.35435       -0.55888       -0.69221
H          2.81738        0.51114        0.81312
H          2.50066       -1.31623       -1.69513
H          4.96668       -0.25593       -0.17630
H          4.73933       -1.34847       -2.98193
H          7.11132       -1.21277       -0.97387
H          7.13550       -1.00635       -2.75087
H          5.19525       -3.40152       -0.67438
H          4.75993       -3.72558       -2.38009
