16

C         -1.68777        0.06655        0.88445
O         -1.26703       -1.31616        0.79640
C         -0.29977       -0.97476       -0.23381
C          1.11079       -0.72874        0.21908
O          2.00553       -0.15670       -0.73295
C          1.36492        0.75009        0.16917
C          0.15126        1.45024       -0.38565
C         -0.97863        0.40802       -0.43440
H         -1.29045        0.53775        1.78893
H         -2.77708        0.16193        0.86900
H         -0.37809       -1.64804       -1.09418
H          1.45983       -1.34615        1.02948
H          1.92264        1.25106        0.94268
H          0.37296        1.81174       -1.39651
H         -0.13281        2.31252        0.22621
H         -1.64938        0.48447       -1.29633
