18

C          3.37083       -0.06661       -1.43263
C          2.63926        0.02684       -0.10381
C          2.95074       -1.09456        0.83030
C          3.58827       -1.04998        2.00521
C          3.55537       -2.34287        2.68133
C          4.11402       -3.58025        2.03372
C          2.70442       -3.17196        1.72089
O          2.44924       -2.37164        0.51328
H          3.04229        0.74060       -2.09653
H          3.17131       -1.01791       -1.93684
H          4.45305        0.03102       -1.29684
H          1.55840        0.03589       -0.28824
H          2.88168        0.98698        0.36777
H          4.02150       -0.16173        2.44532
H          3.28890       -2.35588        3.72960
H          4.25669       -4.45492        2.65832
H          4.86403       -3.47510        1.25904
H          1.88429       -3.75208        2.12844
