18

C          0.94223       -0.09710        0.03926
C          2.46078       -0.07927        0.01445
C          2.96744        0.78671       -1.12737
C          3.40206        1.52956       -2.10683
C          3.90872        2.39554       -3.24865
O          4.04673        3.73052       -2.78739
C          5.21673        1.87525       -3.77248
C          6.22196        2.62380       -4.24921
H          0.58318       -0.72116        0.86281
H          0.53849       -0.49778       -0.89663
H          0.53977        0.91205        0.17311
H          2.84702       -1.09656       -0.10991
H          2.84740        0.31465        0.96040
H          3.16324        2.38186       -4.05096
H          4.67579        3.68691       -2.04770
H          5.33117        0.79241       -3.78865
H          6.14784        3.70763       -4.29860
H          7.12936        2.16662       -4.63039
