15

N          0.82684        0.21739        0.11037
C          2.27848        0.15053        0.11203
C          2.86376        1.25755       -0.71568
C          3.62294        0.74610       -1.70142
C          3.59954       -0.69689       -1.63026
C          2.82274       -1.06208       -0.60187
C          2.53409       -2.49237       -0.17600
C          2.28648       -3.71927        0.18931
H          0.53057        0.97186        0.72391
H          0.46428       -0.64098        0.52214
H          2.66222        0.19221        1.13785
H          2.69396        2.30821       -0.53843
H          4.15833        1.31021       -2.44979
H          4.11874       -1.35058       -2.31336
H          2.08521       -4.72346        0.48178
