18

O          2.05041       -0.01377        1.15429
C          3.07324       -0.03891        0.10941
C          3.53501       -1.52115       -0.18387
O          4.53374       -1.36072        0.92190
C          4.58991        0.01598        0.47804
C          4.72835        1.19811        1.38970
C          3.75258        2.17958        0.70328
C          3.13098        1.36931       -0.47085
H          1.22771       -0.27411        0.70518
H          4.00995       -1.73178       -1.14788
H          2.80172       -2.30123        0.05910
H          5.30300        0.09662       -0.36298
H          5.74673        1.59342        1.39257
H          4.42630        0.98784        2.42040
H          4.24421        3.09282        0.35481
H          2.97572        2.47287        1.41989
H          3.75840        1.43100       -1.36981
H          2.14171        1.75724       -0.73366
