17

N          3.05963        0.47915        1.13546
C          2.47775        0.09481       -0.03534
N          1.26158        0.45062       -0.29531
C          3.16596       -0.74954       -1.04333
C          4.50273       -0.86790       -1.08518
C          5.25893       -1.68948       -2.02944
C          5.17937       -1.43792       -3.51115
N          6.35595       -1.04409       -2.74528
H          2.42125        0.74792        1.87354
H          3.78423       -0.14077        1.48076
H          0.91356        1.05555        0.45011
H          2.52315       -1.24061       -1.76677
H          5.10289       -0.31916       -0.36400
H          5.45378       -2.70643       -1.70395
H          4.55788       -0.63709       -3.89110
H          5.30885       -2.28297       -4.17643
H          6.35689       -0.03324       -2.59827
