18

C          0.81220        0.11193        0.01505
C          2.32354        0.02129        0.00941
C          3.09485        1.00815        0.89287
O          3.98905       -0.04516        1.33913
C          3.04943       -1.06840        0.85762
C          2.29546       -1.65406        2.05171
C          3.75438       -2.19428        0.01514
O          3.20745       -3.13397       -0.56489
H          0.47986        0.98432       -0.55676
H          0.40738        0.20226        1.02694
H          0.37428       -0.77766       -0.44954
H          2.68737        0.04024       -1.02801
H          2.54670        1.43949        1.73687
H          3.62751        1.79837        0.35674
H          1.87211       -0.87050        2.69032
H          2.96705       -2.25513        2.67485
H          1.47513       -2.29815        1.71893
H          4.85199       -2.09501       -0.03680
