16

C          0.83862       -0.00633        0.07598
O          2.25944        0.04033        0.05828
C          2.81345       -0.42017        1.28409
C          4.32962       -0.39735        1.19798
O          5.00028       -1.41314        1.40499
C          4.97849        0.94571        0.94741
C          5.24024        1.66118        2.26270
C          5.46478        2.27492        3.39095
H          0.47246        0.32320       -0.89991
H          0.44660        0.66759        0.84328
H          0.48775       -1.02744        0.25408
H          2.49121       -1.44927        1.47727
H          2.49728        0.22004        2.11486
H          4.34401        1.56028        0.30229
H          5.92380        0.78354        0.41871
H          5.65614        2.77414        4.31318
