18

C          1.22463        0.18659       -0.36724
C          2.62799       -0.05702        0.08466
C          2.99559       -1.45109        0.51451
C          4.20360       -1.79694       -0.35905
O          4.84133       -0.54404       -0.67310
C          3.80006        0.46807       -0.69989
C          3.42743        1.12771        0.59542
O          4.29903        0.88325        1.71463
H          0.79450       -0.70672       -0.82823
H          1.17007        0.99803       -1.10054
H          0.60035        0.46165        0.48917
H          2.19513       -2.18356        0.37361
H          3.27236       -1.46723        1.57468
H          3.88871       -2.25588       -1.30314
H          4.90944       -2.46283        0.14486
H          3.62837        1.00743       -1.62283
H          2.97071        2.11043        0.53556
H          5.11223        0.44446        1.40774
