16

O          1.27093       -0.75087       -0.28891
C          2.36528       -0.23727       -0.08403
C          3.04576        0.75070       -1.01327
C          2.18156        1.09164       -2.23945
C          1.32946        2.23318       -1.77223
O          1.93667        3.52656       -1.82414
C          1.97312        2.84202       -0.57053
C          3.23515        2.08824       -0.27473
H          2.94001       -0.50052        0.82134
H          4.00215        0.30295       -1.30325
H          1.57507        0.24989       -2.58600
H          2.81601        1.41925       -3.07167
H          0.26038        2.11277       -1.82574
H          1.38102        3.17952        0.26387
H          3.37983        1.96159        0.80261
H          4.09805        2.63024       -0.67857
