22

C          0.98593       -0.07104       -0.09815
C          2.50607       -0.08280       -0.07021
C          3.04292        0.14871        1.34272
C          4.57574        0.13000        1.36374
C          5.13963        0.39794        2.76111
O          4.69580       -0.60978        3.67175
C          6.67642        0.44065        2.74107
O          7.21152        0.65885        4.04518
H          0.62474       -0.24158       -1.11745
H          0.59458        0.89162        0.24509
H          0.57456       -0.85718        0.54273
H          2.88421        0.69402       -0.74499
H          2.86485       -1.04619       -0.45113
H          2.65085       -0.62672        2.01151
H          2.68167        1.11384        1.71897
H          4.95725        0.88628        0.66627
H          4.91793       -0.84945        1.00999
H          4.75675        1.34967        3.14648
H          5.22599       -1.41309        3.51534
H          7.03344        1.24227        2.08877
H          7.08737       -0.50984        2.38368
H          6.51363        1.06416        4.59180
