16

C          0.92153        0.08694        0.02624
O          2.34481        0.13742        0.03526
C          2.84896        0.81679       -1.11869
C          4.37752        0.84607       -1.08812
C          4.88853       -0.58325       -1.07650
O          5.65206       -1.07733       -1.90522
C          4.88885        1.60699       -2.30053
C          5.32747        2.25971       -3.34053
H          0.59426       -0.53941        0.86050
H          0.55267       -0.35336       -0.90562
H          0.50986        1.09166        0.15726
H          2.45564        1.84113       -1.12546
H          2.49212        0.30549       -2.02254
H          4.73676        1.32126       -0.16855
H          4.55376       -1.19195       -0.21814
H          5.69691        2.78139       -4.19342
