20

C          1.02868       -0.05890       -0.02909
O          2.43231        0.15604        0.02953
C          2.87825        1.20703       -0.81651
C          2.35137        2.58128       -0.41474
C          3.35521        3.52600       -1.04641
C          4.69533        2.84109       -0.80212
O          5.61476        3.13858       -1.83965
C          4.40100        1.34217       -0.71017
H          0.80008       -0.97580        0.52078
H          0.69246       -0.17758       -1.06345
H          0.49551        0.76739        0.44991
H          2.61137        0.98158       -1.85768
H          2.33269        2.68973        0.67627
H          1.33563        2.75793       -0.78229
H          3.31967        4.52435       -0.59821
H          3.15992        3.64287       -2.11906
H          5.13246        3.18972        0.14018
H          5.26615        2.77798       -2.67231
H          4.75826        0.94974        0.24999
H          4.90136        0.76166       -1.49315
