18

C          1.14097        0.19886        0.12416
C          2.61199       -0.04682        0.08347
C          3.20905       -1.20475       -0.24698
O          2.47502       -2.31171       -0.66735
C          2.96849       -3.57734       -0.42823
C          2.68074       -4.62802       -1.20014
C          4.65680       -1.30807       -0.31450
C          5.47724       -1.04996        0.71253
H          0.95782        1.23841        0.42384
H          0.65234       -0.44479        0.86043
H          0.68430        0.05707       -0.85945
H          3.23372        0.81164        0.33700
H          3.60863       -3.64873        0.44067
H          2.03803       -4.52733       -2.06959
H          3.10356       -5.60186       -0.98643
H          5.06129       -1.65348       -1.26266
H          5.09713       -0.74292        1.68108
H          6.55083       -1.16473        0.60335
