19

C          1.17215        0.42310       -0.29112
N          2.60728        0.17997       -0.19118
N          3.22609        0.83042        0.82477
C          4.48801        0.58017        0.98477
C          5.37910       -0.26177        0.09071
C          6.61756       -0.42944        0.97569
C          6.64372        0.83297        1.83833
N          5.23851        1.10629        2.00264
H          0.74281       -0.20055       -1.08233
H          0.97266        1.46903       -0.53851
H          0.66689        0.17710        0.64948
H          2.75154       -0.83033       -0.11519
H          5.61206        0.30714       -0.81491
H          4.93510       -1.22297       -0.17241
H          7.53700       -0.57056        0.39963
H          6.48281       -1.31078        1.61665
H          7.14264        1.65683        1.31848
H          7.13496        0.65719        2.79888
H          4.91535        1.97619        2.41370
