22

C          1.06061        1.10202       -0.47342
C          2.55396        1.09559       -0.49464
C          3.27451        0.15691       -1.12789
C          4.78392        0.14400       -1.17243
C          5.30031       -1.16224       -0.56397
C          5.31152        0.30848       -2.60743
C          4.91775        1.63824       -3.24484
O          5.47927        1.73136       -4.54921
H          0.70155        1.90261        0.18115
H          0.66836        0.15546       -0.08941
H          0.66002        1.28317       -1.47549
H          3.05404        1.90612        0.03060
H          2.75962       -0.64480       -1.65664
H          5.17805        0.96950       -0.56483
H          4.98848       -2.03191       -1.15371
H          4.92592       -1.29648        0.45720
H          6.39473       -1.16194       -0.51907
H          4.96266       -0.51386       -3.24634
H          6.40689        0.23023       -2.60602
H          5.27723        2.48578       -2.65257
H          3.83281        1.72690       -3.35079
H          6.44657        1.70709       -4.45490
