17

N          2.67081       -1.45258       -0.00299
C          2.25879       -0.04839       -0.06317
C          3.07545        0.75400       -1.07484
C          2.54315        2.14871       -1.12044
N          3.35945        3.05471       -0.68546
N          4.53362        2.49395       -0.23409
C          5.33320        2.05261       -1.37445
C          4.46037        1.07462       -0.62006
H          2.07045       -1.94468        0.66006
H          3.61116       -1.51973        0.38676
H          2.33486        0.38893        0.93945
H          1.19796       -0.01637       -0.34223
H          3.04984        0.31354       -2.07668
H          1.54015        2.36518       -1.51389
H          6.40143        2.02296       -1.19876
H          5.04884        2.40536       -2.35792
H          4.93742        0.35267        0.02420
