18

C          2.03455        1.30912       -0.21299
C          2.55606       -0.10238        0.02297
O          1.52783       -0.84002        0.69027
C          2.98735       -0.79152       -1.29173
C          3.50758       -2.22278       -1.08845
C          2.40542       -3.02789       -1.66184
C          1.55590       -2.20965       -2.26749
O          1.84683       -0.86580       -2.19314
H          1.71013        1.75830        0.73263
H          1.15817        1.30843       -0.87073
H          2.80449        1.94832       -0.65747
H          3.41137       -0.05713        0.70604
H          0.80551       -0.94929        0.04315
H          3.75880       -0.18112       -1.77750
H          3.71318       -2.45992       -0.04150
H          4.42525       -2.38945       -1.66489
H          2.32993       -4.10362       -1.62199
H          0.66210       -2.45405       -2.81813
