18

C          1.97070        1.13029        0.73643
O          2.28297       -0.10741        0.11135
C          2.85462       -1.11959        0.96926
C          1.90987       -1.74762        2.01963
C          2.52175       -3.11549        1.68531
C          2.96678       -2.52907        0.32429
C          4.35148       -2.93096       -0.22132
O          5.35387       -3.19355        0.44487
H          1.54650        1.80099       -0.01511
H          2.87585        1.58362        1.14957
H          1.23192        0.97867        1.52850
H          3.80391       -0.77460        1.40161
H          0.84604       -1.66395        1.77021
H          2.06147       -1.40949        3.04787
H          1.80896       -3.94290        1.62970
H          3.34537       -3.40199        2.34881
H          2.19815       -2.68187       -0.44807
H          4.40627       -2.99261       -1.32130
