20

C          1.83036       -0.27496        1.90297
O          2.73751        0.00014        0.83937
C          3.43649       -1.10621        0.44088
C          4.31494       -1.04250       -0.56405
C          5.13511       -2.20997       -1.04496
C          6.65448       -2.02493       -0.88319
C          7.22157       -0.83520       -1.64783
O          6.99832       -1.90407        0.49719
H          1.35190        0.66540        2.19160
H          2.35930       -0.67197        2.77627
H          1.05218       -0.97285        1.57604
H          3.23803       -2.01544        0.99456
H          4.44416       -0.09278       -1.07767
H          4.90119       -2.38301       -2.10208
H          4.83679       -3.11391       -0.49872
H          7.14811       -2.93299       -1.24764
H          6.82633        0.11435       -1.27296
H          7.00420       -0.91190       -2.71745
H          8.30831       -0.78590       -1.51652
H          6.54080       -1.11641        0.84220
