17

C          1.15243       -0.09177        0.13205
N          2.43920       -0.05086        0.04225
N          2.96452        0.84304        0.96855
C          4.25844        0.86484        0.90309
C          5.09877        1.79088        1.82930
C          4.84113        3.30931        1.76542
C          4.88885        3.26081        3.29578
N          4.59145        1.81494        3.23544
H          0.57669       -0.75049       -0.53518
H          0.58006        0.51102        0.85797
H          4.82148        0.23028        0.19603
H          6.16714        1.53981        1.78325
H          3.86404        3.59380        1.35815
H          5.61857        3.90767        1.28355
H          4.13654        3.86399        3.81189
H          5.87318        3.48319        3.72307
H          3.58852        1.60712        3.26678
