16

O          3.59380       -0.89942       -0.58303
C          2.52355       -0.20090        0.05302
C          3.06714        0.88802        0.99560
C          3.75198        1.98133        0.20678
C          3.31473        3.24628        0.23838
O          2.23441        3.66929        0.98108
C          1.60982        2.74316        1.78827
C          1.95176        1.44851        1.84659
H          3.18728       -1.53100       -1.20117
H          1.94111       -0.93986        0.61463
H          1.87790        0.22798       -0.72266
H          3.82089        0.44423        1.65928
H          4.61551        1.71090       -0.39256
H          3.76118        4.06591       -0.30825
H          0.81949        3.20000        2.36647
H          1.42685        0.77812        2.51992
