14

C          1.17190       -0.13465       -0.15107
O          2.59332       -0.06552       -0.09232
C          3.20851       -1.02949       -0.84750
C          4.54100       -1.11327       -0.90367
C          5.21333       -2.09784       -1.67392
C          5.82699       -2.91339       -2.30854
C          6.58919       -3.87537       -3.06149
O          7.38714       -4.61822       -2.50756
H          0.76834        0.65859        0.48535
H          0.81210       -1.09652        0.22904
H          0.81720        0.03117       -1.17363
H          2.54933       -1.70191       -1.38010
H          5.14535       -0.40752       -0.34036
H          6.40697       -3.88704       -4.14687
