18

C          0.93147       -0.02226        0.13245
C          2.44555       -0.02378        0.10340
C          3.16664        1.05736        0.94865
C          4.24639       -0.00848        1.30232
O          4.71192        0.00828        2.66586
C          3.16550       -1.08192        0.97594
C          5.40765       -0.01831        0.42911
C          6.36499       -0.02428       -0.29601
H          0.53798        0.81858       -0.44785
H          0.54505        0.05987        1.15330
H          0.53771       -0.94485       -0.30601
H          2.80439       -0.04119       -0.93602
H          2.59652        1.40919        1.81785
H          3.50545        1.93317        0.38692
H          3.91014        0.00496        3.21234
H          2.59401       -1.41208        1.85249
H          3.50435       -1.97206        0.43654
H          7.21705       -0.02737       -0.93548
