18

C          0.88650       -0.02352       -0.08599
C          2.34191        0.22889        0.07039
O          3.19849       -0.58998       -0.73151
C          3.14797        0.80884       -1.06316
C          4.41348        1.56079       -0.78303
C          4.26225        3.06058       -1.03171
C          3.17474        3.66984       -0.16193
C          2.24187        4.19246        0.58418
H          0.55226       -0.77182        0.63889
H          0.63647       -0.38148       -1.08941
H          0.32732        0.89965        0.09589
H          2.63384        0.42585        1.09327
H          2.66452        1.07862       -1.99264
H          5.20279        1.17411       -1.43846
H          4.74250        1.38769        0.24874
H          4.01068        3.24770       -2.08219
H          5.21039        3.56799       -0.82224
H          1.48041        4.62190        1.19380
