16

C          1.03611       -0.03209       -0.06469
C          2.53563       -0.02731       -0.06604
C          3.24430        1.10231       -0.05070
O          4.63396        1.17248       -0.04186
C          5.40472        0.05489       -0.05298
O          6.63284        0.14036       -0.03409
C          4.73668       -1.29477       -0.10438
C          3.21762       -1.35104       -0.07970
H          0.62279        0.98196       -0.05556
H          0.65885       -0.55480        0.82028
H          0.65686       -0.53983       -0.95718
H          2.82649        2.10176       -0.03785
H          5.12001       -1.87265        0.74595
H          5.09103       -1.78976       -1.01726
H          2.89919       -1.92541        0.79989
H          2.87365       -1.92194       -0.95173
