18

C          0.85747       -0.10438        0.17862
O          2.22599       -0.02245       -0.18681
C          2.86871        1.12627        0.38601
C          4.32796        1.15588       -0.08932
C          4.23795        2.15090       -1.19065
C          5.30196        2.36046       -2.19814
C          3.07190        2.77928       -1.08447
O          2.25337        2.36154       -0.05400
H          0.44514       -1.02070       -0.25255
H          0.29390        0.74441       -0.22327
H          0.74912       -0.15087        1.26586
H          2.81628        1.06056        1.47893
H          4.67860        0.17560       -0.42420
H          4.99371        1.53761        0.69379
H          6.07978        1.59579       -2.10886
H          5.77234        3.33926       -2.07102
H          4.89048        2.29358       -3.21012
H          2.67785        3.58572       -1.67788
