18

C          0.84299       -0.03674        0.22580
C          2.36018       -0.03685        0.05334
C          3.08111        1.03570        0.92952
C          4.12666       -0.03679        1.30523
O          5.35278       -0.03676        0.54838
C          3.08118       -1.10932        0.92975
C          2.77747       -0.03724       -1.46152
O          3.93657       -0.03743       -1.88266
H          0.55374       -0.03676        1.28255
H          0.39942       -0.92315       -0.24040
H          0.39968        0.84962       -0.24034
H          2.50345        1.39789        1.78831
H          3.47201        1.90338        0.38932
H          4.37296       -0.03660        2.37238
H          5.09535       -0.03711       -0.39899
H          2.50356       -1.47148        1.78859
H          3.47226       -1.97719        0.38967
H          1.93985       -0.03682       -2.18129
