20

C          0.82336        0.16358        0.02566
C          2.33757        0.03874       -0.05158
C          3.04192        1.17341        0.70418
C          4.56351        1.14624        0.70789
C          5.30702        0.18687        0.12814
C          5.23622        2.32539        1.37997
C          4.88667        2.38660        2.84931
O          4.28133        3.32424        3.36353
H          0.34996       -0.65866       -0.52063
H          0.48292        1.10530       -0.41593
H          0.47827        0.12342        1.06364
H          2.63799        0.04660       -1.10594
H          2.62815       -0.93129        0.36874
H          2.69331        1.15846        1.74470
H          2.71940        2.13041        0.27398
H          4.86825       -0.66097       -0.38832
H          6.39296        0.22415        0.13164
H          4.92979        3.25894        0.89628
H          6.32843        2.26360        1.31243
H          5.23008        1.53431        3.46037
