14

C          2.74364        0.55748       -1.39535
C          2.54201        0.00588       -0.00594
O          1.74148       -0.90726        0.20521
C          3.30857        0.65985        1.12558
C          4.76071        0.55139        0.94073
C          5.94552        0.46301        0.75816
C          7.36147        0.35545        0.50634
O          7.81302        0.57141       -0.60907
H          2.12417       -0.00006       -2.10353
H          3.78840        0.45396       -1.69664
H          2.44600        1.60872       -1.41776
H          3.01568        0.17727        2.06422
H          2.99741        1.70748        1.18738
H          7.98413        0.07306        1.37006
