14

C          1.08240        0.01775        0.05380
C          2.38626        0.01775        0.05380
C          3.90626        0.01775        0.05380
C          4.35748        1.26811        0.76159
C          5.00067        1.20871        1.93748
O          5.32191        0.03254        2.58061
C          5.00275       -1.15081        1.94858
C          4.35913       -1.22398        0.77500
H          0.01698        0.01778        0.06057
H          4.28678        0.01277       -0.97294
H          4.13336        2.22817        0.30997
H          5.32694        2.06917        2.50588
H          5.33200       -2.00302        2.52591
H          4.13847       -2.18790        0.33227
