14

O          1.03602        0.06412        0.04209
C          2.45333        0.06136        0.07158
C          2.95999        1.17043       -0.83597
C          3.39461        2.12179       -1.61447
C          3.90526        3.17560       -2.46394
O          5.05125        3.57163       -2.28910
C          3.02055        3.73392       -3.52091
C          3.44426        4.70669       -4.33757
H          0.74481       -0.63544        0.64981
H          2.81899       -0.90706       -0.28179
H          2.79424        0.23311        1.09668
H          2.02286        3.31922       -3.59997
H          4.44613        5.12142       -4.25566
H          2.79579        5.11015       -5.10745
