16

C          1.83499        0.71749        0.95054
C          2.46063        0.14696       -0.08530
C          3.09680        0.85807       -1.16733
C          3.71565        0.24894       -2.18550
C          4.15378        1.31438       -3.09419
O          4.80812        1.09943       -4.10134
C          3.64473        2.65462       -2.65911
C          3.12396        2.35963       -1.25886
H          1.36832        0.10264        1.71440
H          1.75993        1.79235        1.07601
H          2.48590       -0.94120       -0.13173
H          3.86507       -0.79861       -2.37889
H          2.83522        2.96432       -3.32678
H          4.44205        3.40161       -2.65058
H          2.13704        2.81016       -1.11778
H          3.80314        2.77165       -0.50135
