16

C          1.02677       -0.00637        0.41899
C          2.47914       -0.18198        0.00023
O          2.87142        0.98990       -0.78848
C          3.08702        0.42927       -2.10077
O          2.18077       -0.68969       -2.18269
C          2.69131       -1.33670       -0.99355
C          4.14603       -1.42605       -1.36518
C          4.39429       -0.30013       -2.05050
H          0.92054        0.88439        1.04786
H          0.67019       -0.87625        0.97870
H          0.37241        0.14683       -0.44585
H          3.12571       -0.25370        0.88163
H          2.95441        1.14464       -2.91469
H          2.19222       -2.28498       -0.78845
H          4.84502       -2.19403       -1.07948
H          5.33358        0.04618       -2.44444
