18

C          1.54070       -0.25347       -1.07173
C          2.49673        0.68484       -1.09855
C          3.17047        1.23934        0.12351
C          4.65211        0.99396        0.08673
C          5.57351        1.97052        0.13192
C          7.05446        1.73741        0.13336
C          7.72563        2.28848        1.37850
O          7.16870        2.92073        2.27079
H          1.08366       -0.60747       -1.99077
H          1.19016       -0.68465       -0.13890
H          2.80712        1.09494       -2.05708
H          2.76554        0.78233        1.03374
H          2.95174        2.31243        0.18384
H          4.96484       -0.04769        0.04686
H          5.25248        3.00963        0.19194
H          7.50462        2.23159       -0.73382
H          7.29242        0.66963        0.07752
H          8.81174        2.09827        1.43343
