16

C          2.08446        0.51342        0.03682
C          0.97147        1.54245       -0.19305
C         -0.22169        0.92343        0.47073
O         -1.44573        0.97754       -0.26394
C         -2.01650       -0.36102       -0.20333
C         -0.85805       -1.26292        0.04333
C          0.16350       -0.48998        0.40350
O          1.49396       -0.76862        0.34750
H          2.73177        0.80250        0.87093
H          2.70463        0.40085       -0.85850
H          0.80793        1.71559       -1.26470
H          1.24029        2.50945        0.24683
H         -0.37510        1.27279        1.49795
H         -2.50171       -0.57116       -1.16002
H         -2.75281       -0.40197        0.60607
H         -0.81286       -2.31255       -0.19276
