20

C          0.99843        0.03931       -0.04404
C          2.53105        0.10805       -0.04411
C          3.04324        1.24212        0.83718
C          4.40201        0.74275        1.28868
O          4.34024       -0.68840        1.32313
C          3.12461       -1.10921        0.68131
C          3.00292        0.30748       -1.48234
C          4.10414       -0.19852       -2.05311
H          0.60338       -0.07361        0.97247
H          0.63919       -0.81104       -0.63465
H          0.55714        0.95241       -0.46119
H          2.39950        1.36599        1.71727
H          3.10765        2.21554        0.33945
H          4.67103        1.11852        2.28023
H          5.19234        1.03002        0.58774
H          2.46021       -1.47170        1.47451
H          3.33748       -1.95777        0.02325
H          2.37081        0.94224       -2.10490
H          4.81567       -0.81054       -1.50646
H          4.33904        0.01827       -3.09119
