12

N          1.00492       -0.03275        0.09203
C          2.26589       -0.03436        0.09249
C          3.78589       -0.03631        0.09304
C          4.29255        0.35443        1.47182
C          5.81255        0.35443        1.47182
C          7.11640        0.35443        1.47182
C          8.65284        0.35457        1.47233
N          9.81272        0.35328        1.46780
H          4.14327        0.66603       -0.66912
H          4.14108       -1.03520       -0.18616
H          3.93565       -0.34862        2.23364
H          3.93582        1.35272        1.75146
