16

C          1.13490       -0.01682        0.05457
C          2.63470       -0.13470       -0.11481
O          3.29094        0.97574        0.51231
C          4.43059        0.47581        1.11902
C          5.47618        1.27350        1.35233
C          4.39759       -0.99084        1.40398
C          3.20439       -1.34090        0.58328
O          2.76351       -2.48106        0.47769
H          0.77332        0.92803       -0.36465
H          0.85282       -0.02684        1.11320
H          0.61665       -0.84293       -0.44271
H          2.92301       -0.15501       -1.17115
H          5.43526        2.32802        1.09597
H          6.39290        0.89795        1.79477
H          4.19963       -1.19527        2.45793
H          5.28348       -1.51005        1.03159
