18

O          1.04419       -0.05596        0.05668
C          2.45867       -0.02352        0.08680
C          3.02528       -1.14347        0.96008
C          4.43308       -0.65784        1.30156
C          4.27437        0.82995        1.36854
C          5.43068        1.77246        1.59181
O          4.54335        1.40375        2.65496
C          2.97549        1.25833        0.75319
H          0.77574       -0.93585       -0.25860
H          2.84290       -0.10183       -0.93718
H          3.02798       -2.11066        0.44827
H          2.42286       -1.25835        1.86999
H          5.13077       -0.91979        0.49835
H          4.79326       -1.10048        2.23549
H          5.36043        2.78399        1.21177
H          6.43498        1.36864        1.61701
H          3.11016        2.05186        0.01089
H          2.27097        1.62140        1.51053
