22

C          0.92056       -0.03991        0.13849
C          2.44191       -0.07218       -0.03447
C          2.94098       -1.47585       -0.40923
C          2.59924       -1.87022       -1.84573
C          3.07941       -0.82523       -2.84694
C          2.57048        0.57335       -2.50202
O          3.13973        1.52106       -3.40071
C          2.91777        0.96175       -1.06374
H          0.60615       -0.75364        0.90735
H          0.38913       -0.28925       -0.78438
H          0.59136        0.95548        0.45483
H          2.87893        0.19262        0.93709
H          2.53341       -2.22128        0.28388
H          4.03192       -1.50401       -0.28910
H          1.51654       -2.00736       -1.94780
H          3.06023       -2.83717       -2.07777
H          2.75535       -1.09708       -3.85873
H          4.17672       -0.82230       -2.87973
H          1.48560        0.61370       -2.64668
H          4.10523        1.49808       -3.28878
H          2.50392        1.95246       -0.83756
H          4.00652        1.07895       -0.97706
