20

C          0.94603        0.09985        0.10769
C          2.45767        0.06336       -0.04102
C          3.21156        1.06450       -1.00637
C          2.77719        0.06753       -2.14174
C          3.20894       -0.93795       -1.01489
C          2.86194       -2.39462       -1.07930
C          4.70487       -0.59029       -0.79831
O          4.63300        0.84864       -0.79925
H          0.65309        0.92758        0.76220
H          0.58769       -0.82781        0.56535
H          0.41525        0.23111       -0.83783
H          2.87977        0.05288        0.97507
H          2.90762        2.10898       -1.05405
H          3.40116        0.07564       -3.04139
H          1.73021        0.06649       -2.45392
H          1.78858       -2.54063       -1.23689
H          3.13421       -2.90474       -0.14966
H          3.38843       -2.88933       -1.90176
H          5.34084       -0.92989       -1.62109
H          5.08536       -0.94197        0.16490
