19

C          1.24428       -0.50792        0.62644
N          2.55782       -0.26089        0.01937
C          2.73291       -0.70278       -1.27957
N          3.42043       -0.16446       -2.22486
N          3.17515        0.80968        0.61769
C          4.46637        0.89633        0.74242
C          5.52664       -0.00813        0.17000
C          4.97283        2.04408        1.59580
H          0.65191       -1.23713        0.06179
H          0.66577        0.42340        0.66801
H          1.36772       -0.88604        1.64550
H          2.19376       -1.63891       -1.48402
H          3.80932        0.70436       -1.85017
H          5.13382       -0.86213       -0.37545
H          6.15404       -0.38197        0.98260
H          6.15602        0.58553       -0.50349
H          4.13827        2.59867        2.03163
H          5.58325        2.71708        0.99103
H          5.58019        1.63437        2.40864
