20

C          0.98292       -0.14221       -0.25280
C          2.49200       -0.07575       -0.07958
C          2.95684        0.73507        1.14656
C          2.43161        0.15951        2.48065
C          2.85873        0.95727        3.68896
C          2.01634        1.54871        4.54389
C          4.47684        0.73507        1.14656
C          5.78069        0.73507        1.14656
H          0.73895       -0.58277       -1.22529
H          0.53412        0.85447       -0.20899
H          0.52099       -0.77046        0.51453
H          2.92057        0.37504       -0.98492
H          2.88995       -1.09787       -0.03138
H          2.61495        1.77276        1.03931
H          2.79316       -0.86860        2.61008
H          1.33721        0.10593        2.45519
H          3.92907        1.03439        3.87426
H          0.94012        1.49573        4.41933
H          2.39541        2.10147        5.39859
H          6.84633        0.73600        1.14597
