18

C          1.19890        1.81315        1.67735
O          2.61258        1.71101        1.56903
C          3.00981        0.38065        1.23740
C          4.51559        0.34209        1.17067
C          5.16300       -0.04721        0.05744
C          5.26320        0.78975        2.40245
C          5.01538       -0.06676        3.63234
O          4.35893       -1.10318        3.66819
H          0.94596        2.84936        1.91704
H          0.82932        1.16882        2.48090
H          0.72015        1.54682        0.73015
H          2.56624        0.10531        0.27232
H          2.63472       -0.31995        1.99065
H          4.62388       -0.35335       -0.83449
H          6.24704       -0.06335        0.00155
H          4.99025        1.82040        2.65359
H          6.34624        0.77933        2.23056
H          5.50702        0.30422        4.54884
