14

N          1.10646       -0.01010       -0.03254
C          2.44483        0.11297       -0.04560
C          3.27193        1.21690       -0.05009
C          4.60994        0.74943       -0.06242
C          4.56308       -0.62824       -0.06492
N          3.24264       -1.00146       -0.05488
C          2.84237        2.57740       -0.04260
C          2.47651        3.72067       -0.03622
H          0.51179        0.81527       -0.05354
H          0.60786       -0.89234       -0.06719
H          5.50876        1.35178       -0.06785
H          5.34887       -1.37115       -0.07217
H          2.90325       -1.95174       -0.05242
H          2.14844        4.73338       -0.02968
