16

C          1.00479        0.05212        0.65102
C          2.33053        0.04934        0.47470
C          3.16781        1.14662       -0.08083
O          4.09608        0.48132       -0.95903
C          4.00444       -0.94069       -0.72445
C          3.23010       -1.13425        0.56667
C          3.31250       -1.60555       -1.90687
O          2.66764       -2.65360       -1.84230
H          0.40809        0.93774        0.45529
H          0.47691       -0.84842        0.95252
H          3.74468        1.63986        0.70926
H          2.60609        1.89640       -0.64354
H          5.01966       -1.34533       -0.67307
H          2.71283       -2.09299        0.64811
H          3.89341       -1.01482        1.43175
H          3.49501       -1.12895       -2.88634
