16

O          1.04748        0.08496        0.11342
C          2.25700        0.12547        0.05936
C          3.21461       -0.99320        0.26954
C          4.40097       -0.68879       -0.61197
C          4.07189        0.58561       -1.36709
C          3.23254        1.26232       -0.23489
C          4.17255        1.11519        1.00569
C          4.46252       -0.36482        0.83939
H          2.91069       -1.99650        0.50661
H          4.98877       -1.45562       -1.07789
H          3.48120        0.38141       -2.26564
H          4.97164        1.15605       -1.61519
H          2.79439        2.23709       -0.43353
H          3.66027        1.32263        1.95045
H          5.07912        1.72059        0.91451
H          5.10015       -0.87156        1.53738
