18

C          1.02731       -0.09969       -0.30803
C          2.34991       -0.19451       -0.16704
O          3.00145       -1.38238       -0.34057
C          4.42588       -1.25844       -0.24330
C          5.02959       -2.63783       -0.45515
C          4.90905       -3.26013       -1.85500
C          6.39852       -3.55518       -1.67982
O          6.48400       -2.58284       -0.60084
H          0.51653        0.84544       -0.16518
H          0.43296       -0.96972       -0.56794
H          2.96847        0.65620        0.09378
H          4.69583       -0.88658        0.75268
H          4.79067       -0.55328       -1.00058
H          4.76652       -3.32893        0.35698
H          4.68538       -2.55561       -2.66142
H          4.25840       -4.13375       -1.92878
H          7.03398       -3.29261       -2.52877
H          6.64243       -4.56004       -1.32150
