18

O          1.50023        0.17841        0.54773
C          2.69925        0.17474        0.26534
C          3.40513       -1.11808       -0.20101
C          4.50744       -0.89818       -1.27068
C          4.73843        0.56090       -1.44039
C          5.83418        1.53942       -1.16278
C          4.93883        1.12445       -0.03711
C          3.56707        1.43609        0.45214
H          2.65212       -1.81381       -0.58670
H          3.84835       -1.57854        0.69012
H          4.18146       -1.33052       -2.22366
H          5.42537       -1.42427       -0.98381
H          3.96847        0.97017       -2.09593
H          6.85435        1.17136       -1.17549
H          5.73305        2.55057       -1.54153
H          5.46412        0.54246        0.72103
H          3.11721        2.26535       -0.10324
H          3.59199        1.68222        1.51807
