22

C          0.88509       -0.06189        0.12882
C          2.41461       -0.08481       -0.00049
C          2.97934       -1.02690        1.07436
C          2.91884       -0.42064       -1.44272
C          2.46797       -1.80432       -1.93610
C          2.44387        0.64104       -2.45281
C          4.44654       -0.33985       -1.45094
O          5.19450       -1.27716       -1.71297
H          0.59146        0.22731        1.14426
H          0.44601       -1.04488       -0.06907
H          0.43102        0.66234       -0.55263
H          2.77206        0.92383        0.25253
H          2.63656       -2.05641        0.93445
H          2.65598       -0.70562        2.07104
H          4.07351       -1.02517        1.07752
H          1.37766       -1.87910       -1.99567
H          2.83033       -2.60756       -1.28661
H          2.86066       -2.00912       -2.93953
H          1.35995        0.61050       -2.60082
H          2.91119        0.48798       -3.43325
H          2.71424        1.65135       -2.12395
H          4.86938        0.64594       -1.18527
