18

C          0.90746        0.16108        0.01502
C          2.39440        0.08910        0.00212
C          3.18502       -0.69517       -1.02496
C          2.55580       -1.45035       -2.14446
C          3.24862        0.82037       -1.01881
O          2.57951        1.48797       -2.10771
C          4.50274        1.50529       -0.58245
O          5.17055        1.11128        0.36838
H          0.50854       -0.52022        0.77404
H          0.44739       -0.10537       -0.93948
H          0.58490        1.17481        0.27420
H          2.77191        0.07308        1.02240
H          4.05657       -1.22949       -0.65607
H          1.69665       -0.93735       -2.58718
H          2.21830       -2.43009       -1.79182
H          3.28824       -1.61248       -2.94144
H          1.61423        1.39819       -2.06196
H          4.79762        2.39391       -1.16381
