19

C          1.23854       -0.22317        0.59657
N          2.48938        0.02880       -0.10536
N          2.89856        1.39847       -0.02312
C          1.97414        2.46994       -0.39065
C          4.29054        1.58769       -0.12020
N          4.83030        2.57942       -0.76991
C          5.24148        0.63455        0.55722
C          6.57275        0.79362        0.51392
H          1.12005       -1.29962        0.75353
H          0.37670        0.11267        0.01170
H          1.21518        0.25801        1.58014
H          2.43580       -0.28027       -1.07890
H          0.92746        2.20510       -0.21812
H          2.07591        2.73902       -1.44685
H          2.17903        3.35309        0.22510
H          4.11700        3.14992       -1.21785
H          4.79772       -0.18279        1.10676
H          7.02657        1.61857       -0.02636
H          7.23163        0.10011        1.02256
