18

C          1.02026        0.13686       -0.00866
C          2.50676        0.10763       -0.06255
C          3.28978       -0.97792       -0.12239
C          4.73743       -0.61943       -0.10115
O          5.27853       -0.92142        1.17228
C          4.72941        0.88646       -0.36209
C          3.32482        1.36041        0.02639
O          2.86124        2.34516       -0.87708
H          0.59841       -0.87300       -0.03935
H          0.61527        0.69309       -0.85961
H          0.68039        0.61616        0.91442
H          2.93943       -2.00065       -0.15117
H          5.30887       -1.15242       -0.86615
H          4.65360       -0.60418        1.84612
H          4.91699        1.08647       -1.42534
H          5.49641        1.41762        0.21177
H          3.30420        1.76671        1.04299
H          2.71422        1.90916       -1.73329
