14

C         -0.35695        1.21513        0.10268
O         -1.33421        0.29538       -0.28888
C         -0.72576       -0.93965       -0.05799
C         -0.94637       -1.94935       -1.22641
C         -0.51566       -2.97407       -0.52377
O          0.65837       -2.41006        0.21265
C          0.80508       -1.01678        0.11812
C          0.88875        0.35674        0.03078
H         -0.54981        1.57891        1.12920
H         -0.42442        2.09170       -0.55817
H         -1.02822       -1.26023        0.97639
H         -0.15287       -1.95175       -2.01358
H         -1.46370       -3.32512       -0.04641
H          1.79737        0.96644        0.06241
