20

C          0.26777        1.00993       -0.10237
C          1.03136       -0.26054        0.27807
C         -0.23980       -1.01992       -0.14505
N         -0.99392        0.25126        0.05902
C         -0.36026       -1.37003       -1.65080
C          0.96777       -1.69824       -2.36497
N          0.27100       -2.83343       -3.01513
C         -0.63981       -2.88126       -1.84555
H          0.44584        1.35234       -1.12871
H          0.39165        1.85778        0.57656
H          1.23694       -0.33960        1.35390
H          1.96749       -0.43654       -0.25302
H         -0.54334       -1.81827        0.54003
H         -1.38777        0.33750        0.99740
H         -1.03418       -0.73754       -2.24575
H          1.80036       -2.02634       -1.73377
H          1.32509       -0.92891       -3.05568
H          0.84184       -3.66546       -3.15186
H         -0.27839       -3.54130       -1.04651
H         -1.67289       -3.14800       -2.08247
