14

O          0.94114       -0.11533        0.03717
C          2.14433       -0.01665       -0.00121
C          3.20024        1.19705       -0.09965
C          4.36310        0.90461        0.93373
C          4.51589       -0.32876       -0.04667
C          4.30744        0.78411       -1.15289
C          3.15689       -1.19098        0.03919
O          2.88028       -2.36436        0.11377
H          2.79801        2.20722       -0.14728
H          4.04951        0.66971        1.95442
H          5.19181        1.62019        0.96163
H          5.45661       -0.87603       -0.04014
H          3.94081        0.43429       -2.12167
H          5.13134        1.48914       -1.30691
