17

N          0.99411        0.17748       -0.06827
C          2.45575        0.03518       -0.14192
C          3.10567        1.24175        0.53465
N          3.68006        1.25161        1.70067
N          3.66935        0.06384        2.35153
C          3.86165       -1.17918        1.60230
C          2.90443       -1.27133        0.44559
C          2.48247       -2.45755       -0.03150
H          0.71921        1.09636       -0.40514
H          0.73717        0.15029        0.91968
H          2.75917        0.08036       -1.19482
H          3.05870        2.19413       -0.02051
H          4.33036        0.09336        3.13223
H          3.70648       -2.01756        2.29164
H          4.89316       -1.23233        1.23524
H          2.81073       -3.39737        0.39958
H          1.78957       -2.50691       -0.86700
