16

C          1.35624       -1.24101       -0.31408
C          2.17272       -0.02003        0.08296
C          1.37925        1.05296        0.28529
C          0.00713        0.68749       -0.13623
N         -1.28504        0.98547        0.43349
N         -2.14306       -0.04022        0.04509
C         -1.36749       -1.06925       -0.14141
C          0.03842       -0.78821        0.24968
H          1.71652       -2.14371        0.18746
H          1.35056       -1.40020       -1.39611
H          3.24673       -0.03169        0.20971
H          1.70903        2.04312        0.55968
H         -0.05984        0.84469       -1.22558
H         -1.64237        1.89103        0.12700
H         -1.70899       -2.06612       -0.44631
H          0.06432       -0.95130        1.34323
