18

C          0.89966       -0.10903        0.16991
C          2.41405       -0.07285        0.00103
O          2.76906       -1.32690       -0.59344
C          3.58822       -1.28154       -1.66846
C          4.04246       -0.15700       -2.21143
C          3.67308        1.18012       -1.68936
C          4.90083        1.94944       -1.21716
O          2.68344        1.15414       -0.67578
H          0.56702       -1.02247        0.67238
H          0.41940       -0.09237       -0.82041
H          0.53751        0.76801        0.71366
H          2.88506       -0.03162        0.99085
H          3.82970       -2.26946       -2.03176
H          4.68806       -0.20433       -3.08102
H          3.22353        1.74996       -2.51103
H          5.40966        1.43310       -0.39755
H          4.61300        2.93801       -0.84266
H          5.61781        2.09002       -2.03596
