20

O          0.90206        0.12236        0.34531
C          2.33479        0.09558        0.32849
C          2.94959       -0.67678       -0.80538
C          4.29861       -1.32207       -0.70716
C          5.22964       -0.66963       -1.72956
C          5.37876        0.84847       -1.53166
C          4.29791        1.49854       -0.66000
C          2.96547        0.83087       -0.82459
H          0.54105       -0.73088        0.64084
H          2.84594        0.10088        1.28509
H          2.30002       -1.17363       -1.51578
H          4.21110       -2.39475       -0.91126
H          4.71704       -1.21838        0.30116
H          4.82301       -0.84563       -2.73473
H          6.21570       -1.14677       -1.70776
H          5.38699        1.32668       -2.51899
H          6.35858        1.06392       -1.08743
H          4.21581        2.56434       -0.90230
H          4.61357        1.44877        0.38962
H          2.32659        1.32949       -1.54249
