13

C          1.13622       -0.35500       -0.41412
N          2.41999       -0.22958       -0.35929
N          3.01611       -1.07548        0.52470
C          4.48956       -0.99752        0.64994
C          4.90612        0.31332        1.19393
C          5.26532        1.37462        1.63181
C          4.99622       -2.13545        1.52103
N          5.41654       -3.07945        2.24368
H          0.55466        0.29980       -1.08289
H          0.56548       -1.09498        0.17519
H          2.61226       -1.00197        1.46178
H          4.92943       -1.13076       -0.34632
H          5.59229        2.31382        2.01418
