16

C          0.89716       -0.06993       -0.01899
C          2.38871       -0.03046       -0.02804
C          3.13004        1.08833       -0.07617
C          4.62778        1.10781       -0.07017
O          5.16146       -0.07254        0.52049
C          4.64145       -1.25931       -0.06222
C          3.12111       -1.33146       -0.02741
O          2.50928       -2.39695       -0.06410
H          0.46575        0.93659       -0.02494
H          0.53289       -0.58224        0.87729
H          0.52066       -0.59865       -0.90066
H          2.64026        2.05743       -0.12073
H          4.97693        1.95228        0.53253
H          5.02040        1.23398       -1.08501
H          5.03486       -2.10115        0.51603
H          4.98468       -1.35205       -1.09825
