20

C          0.99444       -0.55669        1.05641
C          2.48439       -0.50122        0.97428
C          3.19302       -1.15827        0.04268
C          4.69204       -1.11202       -0.07514
C          5.34681       -2.41808        0.25229
O          6.78322       -2.41441        0.19423
C          6.19110       -2.55570        1.49062
C          6.36580       -3.88063        2.13681
H          0.64209        0.10527        1.85395
H          0.65303       -1.57031        1.28715
H          0.53787       -0.22267        0.11941
H          2.99435        0.10860        1.71617
H          2.67340       -1.76640       -0.69574
H          5.09708       -0.31573        0.56333
H          4.94353       -0.83587       -1.10538
H          4.84741       -3.27888       -0.17280
H          6.29370       -1.72765        2.17782
H          6.22631       -4.70697        1.43204
H          5.63284       -3.99465        2.94118
H          7.36580       -3.96465        2.57263
