17

C          1.08342       -0.00259       -0.04305
N          2.52206       -0.03268       -0.18949
C          3.27200       -0.85809       -0.99803
N          2.57786       -1.72779       -1.80392
C          4.63118       -0.81768       -1.00394
C          5.50852        0.04490       -0.13880
C          5.39118       -1.70497       -1.97631
N          6.02166       -2.44106       -2.78298
H          0.80930        0.70663        0.74334
H          0.69101       -0.98517        0.23265
H          0.60885        0.32654       -0.97195
H          3.02333        0.55474        0.46478
H          1.65951       -1.38381       -2.05769
H          3.07606       -2.09933       -2.60767
H          4.96386        0.68148        0.56007
H          6.12679        0.70002       -0.76273
H          6.17679       -0.58674        0.45783
