17

N          0.94314        0.21108        0.44410
N          2.35997        0.37428        0.54064
C          3.21995       -0.83108        0.56236
C          3.99077       -0.63143       -0.72295
C          4.04964       -1.70174       -1.72222
C          5.33281       -1.32948       -0.98665
N          3.79715        0.70902       -1.23083
C          2.86857        1.19052       -0.45876
H          0.62366       -0.51238        1.09059
H          0.70251       -0.12181       -0.49493
H          2.64429       -1.76215        0.59068
H          3.88864       -0.78087        1.42782
H          3.61027       -2.66567       -1.49515
H          3.94753       -1.42216       -2.76565
H          6.03320       -1.59528       -1.81012
H          6.00333       -0.43904       -0.94997
H          2.40272        2.18476       -0.55982
