16

C          1.01021       -0.09733        0.02058
C          2.31406       -0.09733        0.02058
C          3.83406       -0.09733        0.02058
C          4.47368        1.08446       -0.00345
C          5.96992        1.15267        0.07166
C          6.62285       -0.22131       -0.09313
O          5.91094       -1.21584        0.64623
C          4.58103       -1.40150        0.13579
H         -0.05492       -0.09516        0.02261
H          3.92235        2.01943       -0.04111
H          6.23583        1.57152        1.05006
H          6.35678        1.83631       -0.69277
H          7.64944       -0.18913        0.28572
H          6.67068       -0.51750       -1.14789
H          4.06712       -2.07652        0.82749
H          4.63818       -1.89779       -0.84035
