16

O          1.00383       -0.05036        0.50888
C          2.17615       -0.05091        0.24637
C          3.42656        1.02359        0.02943
C          4.11261       -0.05142        1.04282
C          3.42902       -1.12173        0.02333
C          3.95844       -0.82361       -1.39149
C          3.27230       -0.04213       -2.47143
C          3.95667        0.73461       -1.38742
H          3.30225        2.04669        0.37271
H          3.74293       -0.05461        2.07446
H          5.20665       -0.05017        1.04999
H          3.30649       -2.14697        0.36082
H          4.89939       -1.32480       -1.57633
H          2.18805       -0.04364       -2.51310
H          3.72764       -0.03919       -3.45775
H          4.89637        1.23897       -1.56940
