18

C          2.56111        0.87320        1.42991
C          2.49971        0.17615        0.09642
O          1.74619        0.57850       -0.79555
C          3.36535       -1.06024       -0.09213
C          4.84480       -0.75461       -0.09472
C          5.58941       -0.93882        1.00931
C          5.50357       -0.34925       -1.32803
C          4.91552        0.20123       -2.39546
H          1.80420        1.66252        1.46434
H          3.54486        1.32642        1.57281
H          2.35087        0.15807        2.22943
H          3.07152       -1.55848       -1.02309
H          3.10839       -1.76389        0.70960
H          5.14934       -1.26712        1.94691
H          6.65969       -0.75018        1.02023
H          6.58105       -0.50978       -1.37630
H          3.85668        0.43542       -2.43822
H          5.50454        0.46284       -3.27044
