16

C          0.99652       -0.06701        0.07415
C          2.51652       -0.06701        0.07415
C          3.82038       -0.06701        0.07415
C          5.26984       -0.05786        0.03805
O          5.68919       -0.04858       -1.34929
C          5.95183        0.96839        0.96549
O          6.70985       -0.06149        1.64423
C          5.96655       -1.09173        0.94469
H          0.62343       -0.69895        0.88488
H          0.62341       -0.45313       -0.87849
H          0.62343        0.95107        0.21609
H          5.27141        0.74480       -1.72696
H          5.30355        1.50547        1.66560
H          6.61055        1.68494        0.46456
H          5.32602       -1.65081        1.63539
H          6.63649       -1.78881        0.43134
