17

N          1.01008       -0.00137       -0.27803
C          2.49331        0.06567       -0.19719
C          2.96464        0.10638        1.14266
C          3.20772        1.37388        0.19404
C          2.49058        2.47061       -0.53257
C          2.76728        3.61326        0.35465
N          3.66227        3.37902        1.25512
N          4.16522        2.09215        1.09803
H          0.65624       -0.88536        0.07820
H          0.66238        0.12163       -1.22317
H          3.00235       -0.57776       -0.90705
H          3.80244       -0.54017        1.36818
H          2.28212        0.24451        1.97711
H          1.42845        2.36475       -0.72451
H          3.00010        2.67580       -1.48612
H          2.22751        4.55817        0.23800
H          4.25039        1.68195        2.03798
