20

C          1.16614        0.29332        2.42181
O          2.58035        0.26207        2.28529
C          2.98015       -0.53577        1.17611
C          4.48576       -0.52665        1.09416
C          5.12700       -0.11611       -0.01455
C          5.25776       -0.97534        2.32277
C          4.95439       -2.40777        2.76934
O          5.33172       -3.35672        1.77680
H          0.91499        0.94857        3.25999
H          0.78269       -0.70926        2.63453
H          0.69889        0.69128        1.51551
H          2.53459       -0.12961        0.26006
H          2.61719       -1.56213        1.30205
H          4.58863        0.22733       -0.89279
H          6.21214       -0.09283       -0.06790
H          5.03928       -0.28910        3.14941
H          6.33571       -0.89703        2.12838
H          3.89606       -2.55117        3.00756
H          5.52843       -2.63695        3.67286
H          4.86975       -3.11483        0.95582
