20

C          1.07592       -0.01867       -0.07877
C          2.59450        0.01301       -0.10044
C          3.09003        1.16467       -0.86397
C          3.52465        2.18894       -1.54369
C          4.03131        3.38300       -2.33610
C          2.87010        4.21572       -2.78885
C          2.59003        4.48099       -4.07513
C          1.44225        5.32512       -4.52430
H          0.72153       -0.88160        0.49385
H          0.66723       -0.09164       -1.09259
H          0.66773        0.88718        0.38273
H          2.97217       -0.91520       -0.54297
H          2.97268        0.05914        0.92665
H          4.62723        3.02231       -3.18178
H          4.68668        3.98538       -1.69784
H          2.24136        4.63084       -2.00353
H          3.21853        4.06904       -4.86195
H          0.85704        5.71018       -3.68341
H          0.77654        4.73869       -5.16475
H          1.81212        6.17808       -5.10157
