16

C          1.09161        0.10611       -0.06051
C          2.42145        0.21716       -0.08513
O          3.03467        1.23312       -0.76228
C          4.45031        1.07339       -0.84376
C          4.97838        2.17318       -1.70813
C          5.30885        2.00091       -2.99372
C          5.87104        3.14622       -3.81992
C          6.35329        4.12867       -4.52863
H          0.60650       -0.69155        0.48661
H          0.46857        0.82230       -0.58644
H          3.07166       -0.47540        0.43237
H          4.70437        0.09028       -1.26094
H          4.89334        1.15442        0.15614
H          5.09035        3.14768       -1.24081
H          5.19622        1.04939       -3.50386
H          6.74490        4.93270       -5.10694
