18

C          0.90446       -0.11541        0.21256
C          2.38034       -0.11377       -0.02828
C          3.03609       -1.15553       -0.59489
O          4.40795       -1.17107       -0.86882
C          5.03037       -0.16323       -0.04812
C          5.90195        0.94865       -0.42243
C          4.41108        1.18536       -0.49355
C          3.14789        1.17415        0.30974
H          0.44943       -1.07427       -0.05377
H          0.42495        0.66042       -0.39146
H          0.68815        0.07970        1.26759
H          2.57891       -2.08007       -0.92222
H          5.10588       -0.41142        1.01162
H          6.44775        0.86858       -1.35612
H          6.45150        1.46422        0.35633
H          4.11293        1.33549       -1.53442
H          2.54419        2.04584        0.03077
H          3.33658        1.23417        1.38675
