16

C         -0.08641        0.91478        0.00731
C         -0.79324       -0.41036       -0.04537
C          0.71275       -0.36495        0.02574
C          1.42767       -0.78905        1.27147
C          2.90844       -0.62529        1.18262
N          3.56039       -1.73569        1.29799
N          2.61346       -2.78649        1.48561
C          1.42967       -2.26585        1.47559
H         -0.18049        1.49640        0.91774
H         -0.06883        1.51507       -0.89628
H         -1.24638       -0.70549       -0.98659
H         -1.35434       -0.72226        0.82841
H          1.24948       -0.64364       -0.87749
H          1.04678       -0.28896        2.16687
H          3.37427        0.35939        1.04555
H          0.49905       -2.83100        1.61736
