16

C          1.01624        0.19494        0.46401
C          2.29573        0.10722        0.08533
C          3.12305       -1.11998       -0.18276
C          4.14711       -0.70373       -1.20753
C          5.37450        0.08732       -0.83796
C          4.13545        0.81389       -1.28100
C          3.08487        1.29538       -0.35131
O          2.90525        2.46020       -0.04413
H          0.42881       -0.69135        0.67623
H          0.51879        1.15936        0.52942
H          2.51234       -1.94924       -0.54647
H          3.62886       -1.43649        0.73955
H          4.10448       -1.25766       -2.13713
H          6.21212        0.06447       -1.52735
H          5.66722        0.14958        0.20363
H          4.14265        1.28536       -2.25486
