18

C          1.03059        0.01192        0.19187
C          2.54189       -0.04487        0.08440
O          3.10827        1.12657        0.67812
C          4.37050        0.69438        1.19036
C          5.46207        1.02208        0.18029
C          4.16691       -0.76994        1.38351
C          4.90673       -1.59098        2.13462
O          3.03511       -1.22240        0.73249
H          0.63981        0.92295       -0.27190
H          0.71660        0.01515        1.24134
H          0.57370       -0.86122       -0.28422
H          2.83655       -0.07939       -0.97224
H          4.55280        1.21168        2.13757
H          5.26734        0.55827       -0.79286
H          6.44473        0.69465        0.53089
H          5.49840        2.10416        0.00556
H          5.77822       -1.23687        2.67445
H          4.64479       -2.64000        2.22667
