20

O          1.02584       -0.21799       -0.57257
C          2.13970       -0.00852       -0.10355
C          3.08336        1.09094       -0.56362
C          2.46499        2.00460       -1.62681
C          1.45118        2.99591       -1.05585
C          2.02160        3.77863        0.12119
C          2.55497        2.84697        1.20336
C          3.59736        1.87941        0.64559
H          2.54468       -0.67714        0.67670
H          3.93179        0.56184       -1.01663
H          1.98684        1.41157       -2.41537
H          3.27094        2.57247       -2.10963
H          0.54953        2.46158       -0.73413
H          1.13939        3.69254       -1.84254
H          1.24665        4.42881        0.54233
H          2.82962        4.43154       -0.23050
H          1.72389        2.28293        1.64427
H          2.99996        3.43899        2.01112
H          3.91903        1.19873        1.44297
H          4.48389        2.45181        0.34389
