18

C          0.92039        0.02974        0.13656
O          2.29548       -0.31551        0.15520
C          2.77230       -0.93613       -1.04547
C          2.12993       -2.32042       -1.32917
C          2.83868       -3.47169       -0.66195
C          4.12289       -3.37852       -0.28876
C          4.87950       -2.17266       -0.53146
C          4.26671       -1.02766       -0.87074
H          0.73516        0.72882        0.95687
H          0.30173       -0.85440        0.31181
H          0.64056        0.51261       -0.80366
H          2.55992       -0.26720       -1.88972
H          2.15761       -2.50996       -2.41053
H          1.07804       -2.33915       -1.03387
H          2.28178       -4.38806       -0.49169
H          4.62707       -4.20767        0.19650
H          5.95442       -2.20778       -0.38552
H          4.84334       -0.11772       -0.99864
