20

C          2.09700        0.60611        0.08126
O          2.63724       -0.08110       -1.03891
C          3.40306       -1.24443       -0.67818
C          2.65551       -2.39615       -0.07752
C          3.18532       -2.49905       -1.48232
C          2.30948       -2.44200       -2.68475
O          4.76201       -1.02628       -0.27049
C          5.57228       -0.53903       -1.33693
H          1.84678        1.62449       -0.22727
H          2.81052        0.65479        0.90986
H          1.17872        0.10935        0.40835
H          3.15545       -2.95544        0.70628
H          1.58553       -2.30455        0.06321
H          4.03772       -3.15140       -1.63693
H          1.24960       -2.49989       -2.42225
H          2.54275       -3.27344       -3.35685
H          2.48171       -1.51581       -3.24345
H          6.62070       -0.60201       -1.03673
H          5.32390        0.50435       -1.54973
H          5.44437       -1.14162       -2.24271
