19

C         -1.51640        0.16778        0.90852
C         -1.11059        1.39806        0.07196
C          0.07379        0.95134       -0.80898
C          1.40582        0.94231       -0.06521
C          1.38262       -0.35113        0.75669
N          0.49571       -1.29966        0.04962
C         -0.95140       -1.01476        0.17417
C         -0.17599       -0.51396       -0.98343
H         -2.60782        0.10198        0.97198
H         -1.13182        0.22960        1.93107
H         -0.87971        2.26554        0.69727
H         -1.95275        1.67190       -0.57741
H          0.12330        1.51694       -1.74246
H          1.56201        1.83168        0.55100
H          2.22340        0.88615       -0.79620
H          1.04789       -0.17253        1.78414
H          2.39264       -0.76947        0.82382
H         -1.62347       -1.85290        0.05465
H         -0.28751       -0.91735       -1.97489
