18

C          1.01140        0.23970       -0.12370
O          2.42436        0.07534       -0.08854
C          2.87254       -0.64138        1.06312
C          2.36587       -2.07389        1.02324
C          1.93125       -3.30270        0.98903
C          4.36677       -0.77578        0.98926
C          5.23875        0.46007        0.99707
C          5.23028       -0.45506        2.18676
H          0.76506        0.91973       -0.94268
H          0.64293        0.67234        0.81268
H          0.51398       -0.71492       -0.32210
H          2.54933       -0.13224        1.97815
H          1.57999       -4.30804        0.95611
H          4.68843       -1.55831        0.30660
H          4.75491        1.42598        1.07878
H          6.11370        0.45883        0.35594
H          4.76034       -0.09090        3.09327
H          6.10450       -1.07736        2.35683
