20

C          1.06493       -0.05213       -0.01418
C          2.58481       -0.02749       -0.02155
C          3.11931        1.36087       -0.35934
C          4.63931        1.36087       -0.35934
C          5.94317        1.36087       -0.35934
C          7.46317        1.36087       -0.35934
C          8.18838        0.05946       -0.20026
C          8.10016        2.53173       -0.50241
H          0.70321       -1.05589        0.22980
H          0.66337        0.22481       -0.99418
H          0.66499        0.64341        0.73057
H          2.95465       -0.75956       -0.74988
H          2.95615       -0.34399        0.96084
H          2.76686        2.09589        0.37309
H          2.76674        1.67733       -1.34750
H          7.48850       -0.77664       -0.09827
H          8.81860        0.07623        0.69497
H          8.81893       -0.13971       -1.07298
H          7.55394        3.46314       -0.61624
H          9.18375        2.58524       -0.50893
