18

C          1.49495       -0.31542       -0.31110
C          2.88683        0.00421        0.14673
C          3.70234       -1.12993        0.72655
C          4.09446       -0.53955       -0.59833
C          5.14371        0.53356       -0.65476
C          4.39859        1.84874       -0.40559
C          3.22428        1.43224        0.44566
O          2.56939        2.13923        1.19233
H          1.40126       -1.34794       -0.66230
H          1.19510        0.34956       -1.12706
H          0.79380       -0.17601        0.51811
H          3.28383       -2.13107        0.71796
H          4.31401       -0.93017        1.60013
H          3.94435       -1.08265       -1.51901
H          5.67549        0.54981       -1.61156
H          5.88798        0.37101        0.13636
H          4.01158        2.25910       -1.34290
H          5.02521        2.58747        0.10207
