19

N          1.06405        0.14204        0.12147
C          2.51267        0.02790       -0.02882
C          2.98898       -0.83679       -1.18447
C          2.15528       -1.43644       -2.05552
C          4.43326       -1.01683       -1.35699
C          5.38457       -0.46591       -0.58465
C          6.80086       -0.65964       -0.79355
C          7.72299       -0.09411       -0.00278
H          0.86937        0.75076        0.91456
H          0.69766       -0.77302        0.37790
H          2.91121       -0.37373        0.91081
H          2.91202        1.04088       -0.15645
H          1.07842       -1.31895       -1.98244
H          2.51208       -2.04873       -2.87706
H          4.73813       -1.64705       -2.19235
H          5.11917        0.17361        0.25299
H          7.12069       -1.28456       -1.62379
H          7.45147        0.53964        0.83653
H          8.78025       -0.25324       -0.18304
