18

C          1.22788       -0.35695       -0.78108
C          2.25916        0.06311        0.25046
C          3.17205        1.15011       -0.29625
C          2.71265        2.61596       -0.73817
O          4.19506        2.93442       -0.50818
C          3.85973        2.13614        0.74676
C          2.77234        2.89604        1.43079
C          1.98177        3.22619        0.39991
H          0.67553       -1.23313       -0.42350
H          1.69513       -0.61217       -1.73667
H          0.50677        0.44632       -0.95898
H          2.87051       -0.80677        0.52009
H          1.74369        0.37506        1.16363
H          3.87521        0.70127       -1.01502
H          2.39065        2.80448       -1.76210
H          4.73121        1.80779        1.31162
H          2.67386        3.13609        2.47439
H          1.08332        3.81398        0.38233
