18

C          1.55929       -0.13942        0.31188
C          2.91291        0.09750       -0.27503
C          3.69761       -1.07301       -0.82311
C          4.19882       -0.41393        0.42874
C          4.97184        0.91624        0.46854
C          4.00957        2.08621        0.93564
C          3.35582        1.58095       -0.42362
O          4.81343        1.59679       -0.89605
H          1.41025       -1.19011        0.58194
H          0.78860        0.13285       -0.41612
H          1.40704        0.46368        1.21193
H          4.25895       -0.92330       -1.73922
H          3.28232       -2.07085       -0.73627
H          4.10435       -0.86830        1.40359
H          6.00329        0.92707        0.82269
H          4.43269        3.09458        0.92590
H          3.44275        1.90811        1.85103
H          2.72535        2.27598       -0.98016
