18

C          1.02333       -0.07772        0.05844
C          2.54333       -0.07772        0.05844
C          3.84719       -0.07772        0.05844
C          5.29771       -0.07731       -0.00135
C          5.80326       -0.08411       -1.44071
C          6.00131        0.95370        0.90394
O          6.88544       -0.07078        1.43542
C          6.00260       -1.10042        0.91232
H          0.65024        0.71000       -0.60196
H          0.65024        0.10035        1.07083
H          0.65024       -1.04350       -0.29354
H          5.44734        0.79601       -1.98877
H          5.46055       -0.97723       -1.97548
H          6.89828       -0.07628       -1.48381
H          5.39987        1.39884        1.70435
H          6.55945        1.74322        0.39115
H          5.40162       -1.54022        1.71650
H          6.56120       -1.89322        0.40565
