18

C          1.10834       -0.07505       -0.01098
N          2.55659       -0.03373        0.14552
N          3.13107       -1.17940        0.59878
C          4.42424       -1.19605        0.50277
C          5.21038       -2.36762        1.02099
C          6.10536       -2.97677       -0.04594
C          6.87308       -3.49931       -0.96115
C          7.76807       -4.10846       -2.02808
H          0.75122        0.87685       -0.41520
H          0.61276       -0.23735        0.95226
H          0.81210       -0.87209       -0.70063
H          2.98160        0.31762       -0.71589
H          5.00248       -0.35184        0.08611
H          4.53254       -3.13433        1.40972
H          5.83848       -2.01015        1.84371
H          8.80102       -3.78153       -1.87987
H          7.43385       -3.79270       -3.02027
H          7.72845       -5.19974       -1.96990
