20

C          2.71912        1.48670        0.28416
C          2.43254        0.02153       -0.00532
C          3.05210       -0.92502        0.99737
C          2.85444       -2.41288        0.82682
C          4.19780       -1.80820        0.55258
O          3.23539       -0.40455        2.33284
C          2.11730       -0.43559        3.12496
C          2.10779        0.15949        4.31838
H          2.37183        2.11230       -0.54410
H          3.78984        1.66387        0.42564
H          2.19773        1.81912        1.18802
H          2.79902       -0.21049       -1.01327
H          1.34730       -0.13364       -0.02624
H          2.27971       -2.76335       -0.02282
H          2.74356       -3.02471        1.71440
H          4.53594       -1.75105       -0.47427
H          4.99113       -2.00259        1.26648
H          1.27182       -0.97126        2.72035
H          2.98478        0.69183        4.67455
H          1.23102        0.13592        4.95423
