17

N          1.48000       -0.35423       -0.84960
C          2.81861       -0.12659       -0.31506
C          3.12502       -1.05621        0.89536
C          4.57380       -1.03860        0.30718
C          3.86412       -0.99433       -1.08221
N          5.17389        0.29222        0.60002
N          4.53142        1.47857        0.32442
C          3.32043        1.32300       -0.11064
H          0.92576       -1.03222       -0.32740
H          0.90249        0.48296       -0.91184
H          2.65149       -2.04645        0.88316
H          2.99600       -0.62543        1.89342
H          5.20811       -1.89763        0.53129
H          3.51578       -1.97234       -1.43868
H          4.41156       -0.50636       -1.89502
H          6.18050        0.37901        0.44692
H          2.66801        2.17479       -0.35371
