13

N          1.78193       -1.89143       -0.79295
C          2.64414       -1.04196       -0.43938
C          3.68348       -0.01798       -0.01317
C          3.06398        1.36994       -0.03002
N          2.55005        2.52134       -0.04401
N          4.19316       -0.32714        1.35067
C          4.89385       -1.60882        1.46380
C          5.65323       -0.30989        1.47439
H          4.48715       -0.03173       -0.76171
H          4.98231       -2.25337        0.59695
H          4.75602       -2.13185        2.40514
H          6.26823       -0.07069        0.61612
H          6.04266        0.03295        2.42653
