14

C          0.96212        0.09217        0.00841
C          2.26598        0.09217        0.00841
C          3.78598        0.09217        0.00841
O          4.35457        1.31318       -0.43907
C          4.74990        1.29009       -1.80350
O          5.59034        0.19911       -2.20190
C          5.15640       -0.99932       -1.71535
C          4.29017       -1.11449       -0.71254
H         -0.10342        0.09679        0.00775
H          4.08605       -0.00476        1.05949
H          5.32753        2.20372       -1.98066
H          3.86854        1.33198       -2.45394
H          5.62053       -1.83591       -2.22084
H          3.98155       -2.09177       -0.36029
