20

C          1.05497       -0.06838        0.01514
C          2.57814        0.07171        0.08987
C          3.01408        1.23804       -0.77067
C          3.82848        1.14066       -1.83013
C          3.01676        0.22820        1.52443
O          2.78150       -0.92283        2.35587
C          4.14880       -0.59632        2.08778
C          4.91750       -0.13046        3.27131
H          0.71729       -0.18109       -1.02117
H          0.55049        0.80398        0.44611
H          0.71853       -0.94965        0.57256
H          3.01082       -0.85351       -0.31495
H          2.62594        2.21841       -0.50076
H          4.24053        0.18898       -2.14930
H          4.09487        2.02027       -2.40865
H          2.79937        1.19997        1.94861
H          4.71061       -1.25807        1.44322
H          4.30134        0.46237        3.95536
H          5.76059        0.48800        2.94914
H          5.31394       -0.98657        3.82579
