18

C          1.07057       -0.08762       -0.23156
O          2.48475       -0.22210       -0.14469
C          2.89526       -0.94982        1.00666
C          2.47475       -2.41651        0.94949
O          1.78746       -2.96828        1.80638
C          4.39892       -0.91096        1.03696
C          5.13515       -0.46984        2.06945
C          6.63110       -0.43863        2.07149
H          0.84434        0.64710       -1.00907
H          0.64382        0.26166        0.71360
H          0.61927       -1.04133       -0.52082
H          2.47577       -0.49082        1.91028
H          2.80768       -2.96906        0.05350
H          4.90147       -1.25911        0.13628
H          4.64786       -0.10311        2.97021
H          7.05450       -0.82486        1.13867
H          7.01619       -1.04399        2.89797
H          6.98336        0.58859        2.20645
