13

C          1.05600       -0.08873       -0.01094
N          2.34623       -0.10964       -0.04966
N          2.87788        0.53840        1.06000
C          4.16696        0.55006        1.07569
C          5.03797        1.14119        2.08584
C          6.25555        0.86353        1.60492
N          6.33227        0.16991        0.41582
C          5.10302       -0.03294        0.07300
H          0.47543       -0.56036       -0.81844
H          0.48507        0.38649        0.80517
H          4.73862        1.65930        2.97499
H          7.17724        1.15348        2.09806
H          4.72292       -0.55248       -0.81570
