15

N          1.06414        0.28139        0.07197
C          2.51827        0.31521        0.05375
C          2.99283        1.69647       -0.03345
C          3.39859        2.82590       -0.10748
C          3.88024        4.16347       -0.20147
C          4.80955        4.61972        0.64771
C          3.34095        5.09537       -1.27438
C          2.87835        5.89475       -2.19473
H          0.75373       -0.68759        0.07671
H          0.71427        0.69152       -0.79291
H          2.88695       -0.26537       -0.79843
H          2.90048       -0.15671        0.96460
H          5.21820        3.98754        1.42932
H          5.18137        5.63672        0.58360
H          2.49770        6.54621       -2.94617
