18

C          1.29796       -0.07074        0.02523
C          2.74695       -0.49365        0.20478
C          3.09923       -0.67347        1.64709
C          2.45547       -1.71735        2.51734
C          3.89435       -1.86082        2.11114
O          4.89412       -1.37338        3.02755
C          4.83106        0.06259        2.99613
O          3.64924        0.49129        2.30016
H          1.10619        0.20101       -1.01750
H          1.04967        0.78646        0.65851
H          0.62002       -0.88986        0.28853
H          3.40137        0.26734       -0.23388
H          2.92298       -1.41795       -0.35800
H          1.73796       -2.39401        2.06920
H          2.23095       -1.45672        3.54434
H          4.16181       -2.63810        1.40607
H          5.71061        0.44065        2.46583
H          4.81329        0.44892        4.01735
