14

C          1.37684        0.14382        0.17550
C          2.85595        0.09106        0.10241
C          3.65931       -0.95500        0.06750
O          4.98689       -0.62027       -0.09088
C          4.87504        0.80408       -0.33595
O          3.55189        1.29087        0.00625
C          5.08614        1.06431       -1.81855
C          5.26723        1.28754       -3.09033
H          0.93773       -0.86016        0.13650
H          0.97774        0.71325       -0.66956
H          1.05183        0.62615        1.10183
H          3.43598       -2.00523        0.12322
H          5.62152        1.33442        0.26513
H          5.41090        1.46703       -4.13064
