16

C          1.08418        0.05641       -0.02401
C          2.56980       -0.02340        0.11121
C          3.22391       -0.88980        0.89682
C          2.59155       -1.89929        1.79812
C          3.72890       -2.05976        2.74104
O          3.64396       -2.61854        3.83050
C          5.00195       -1.51937        2.16987
O          4.60881       -0.82297        0.98183
H          0.81817        0.81667       -0.76560
H          0.62160        0.34338        0.92478
H          0.66715       -0.89770       -0.36031
H          3.14825        0.69013       -0.47246
H          2.40776       -2.84284        1.27931
H          1.70598       -1.52736        2.31600
H          5.67536       -2.33634        1.90007
H          5.47301       -0.81714        2.86102
