20

C          3.03488        0.83891        1.21290
C          2.54931        0.07480       -0.01362
C          2.98548       -1.37051       -0.01161
C          2.18820       -2.45535       -0.03513
C          0.69575       -2.51265       -0.05565
C          4.47988       -1.64783       -0.02710
C          5.76179       -1.88572       -0.04039
C          7.25619       -2.16304       -0.05587
H          2.68881        1.87693        1.16934
H          4.12849        0.85922        1.26916
H          2.65233        0.39143        2.13596
H          2.94052        0.55993       -0.91621
H          1.46102        0.16871       -0.06671
H          2.66093       -3.43887       -0.04899
H          0.21655       -1.53403       -0.00111
H          0.34115       -3.10664        0.79254
H          0.36059       -3.00335       -0.97466
H          7.74752       -1.51927       -0.79071
H          7.43898       -3.20837       -0.31988
H          7.68251       -1.96563        0.93160
