17

C         -1.28484        0.53215       -0.88982
C          0.15805        0.40923       -1.32465
C          1.23085        0.45378       -0.24278
C          0.75521        0.86167        1.09873
C         -0.50050        0.54374        1.46912
C         -1.25765       -0.26756        0.42841
C         -0.33645       -1.44369        0.02202
N          0.74753       -0.83003       -0.80358
H         -1.94298        0.05877       -1.62682
H         -1.58632        1.57614       -0.75665
H          0.38692        0.69278       -2.33933
H          2.23697        0.74249       -0.52132
H          1.41785        1.42179        1.74958
H         -0.93378        0.80902        2.42402
H         -2.24374       -0.57631        0.78212
H         -0.88457       -2.16350       -0.59735
H          0.07958       -1.98053        0.88257
