16

C          0.85830        0.20274        0.80688
O          2.16877        0.75696        0.51690
C          2.04584        0.30081       -0.85839
C          0.89565       -0.66088       -0.46888
C         -0.36164       -0.61255       -1.33296
C         -0.37977       -1.99420       -1.87379
C          0.55091       -2.71241       -1.25981
O          1.29937       -2.06008       -0.30480
H          0.10372        0.99683        0.82749
H          0.84025       -0.34624        1.75138
H          1.78678        1.13513       -1.51887
H          2.96419       -0.17592       -1.21223
H         -0.30330        0.13193       -2.13007
H         -1.26462       -0.43899       -0.73681
H         -1.05590       -2.36038       -2.63061
H          0.79841       -3.75373       -1.39207
