20

C          0.83558       -0.04702        0.10378
C          2.34970        0.00737       -0.06935
C          3.09281       -0.39556        1.17275
C          4.42363       -0.47193        1.39955
O          5.46521       -0.19952        0.55240
C          5.25827        0.23384       -0.77746
C          4.88611       -0.90068        2.71883
C          6.16757       -1.02445        3.09303
H          0.34280        0.25530       -0.82643
H          0.50193        0.62950        0.89753
H          0.49983       -1.05986        0.34965
H          2.61204        1.03359       -0.34353
H          2.61034       -0.66440       -0.89268
H          2.43687       -0.66315        2.00232
H          6.24134        0.38214       -1.23502
H          4.74219        1.19658       -0.80479
H          4.74068       -0.52754       -1.36598
H          4.12282       -1.13681        3.45761
H          6.98760       -0.80766        2.41517
H          6.42475       -1.34946        4.09537
