16

C          2.89367        0.64896       -1.20078
O          2.51212        0.13224        0.06636
C          2.99405       -1.19926        0.25882
O          4.41670       -1.24330        0.29139
C          5.00045       -2.47202        0.46227
C          4.38599       -3.65377        0.63164
C          6.52045       -2.47231        0.46036
C          7.82431       -2.47256        0.45873
H          2.45096        1.64211       -1.31270
H          2.52177        0.00973       -2.00768
H          3.98121        0.74736       -1.26751
H          2.59706       -1.83799       -0.54027
H          2.59340       -1.53769        1.22122
H          3.31048       -3.77123        0.65602
H          4.96741       -4.56233        0.75944
H          8.88910       -2.46623        0.45815
