18

C          1.06220       -0.02041        0.07548
C          2.58875        0.04675        0.06035
C          3.06312        1.35889       -0.58380
O          4.48298        1.38482       -0.71620
C          3.12527       -0.09771        1.46861
C          3.96305       -1.07834        1.82956
C          4.51193       -1.16309        3.24446
C          4.98276       -1.23578        4.45817
H          0.66259        0.02909       -0.94341
H          0.62928        0.80859        0.64677
H          0.71324       -0.95726        0.52459
H          2.96430       -0.78567       -0.55104
H          2.75053        2.23502       -0.00526
H          2.64388        1.45662       -1.59135
H          4.85826        1.30864        0.18001
H          2.81614        0.64535        2.20194
H          4.30486       -1.84105        1.13621
H          5.36703       -1.29615        5.44974
