17

N          2.95096        0.29911        1.29369
C          2.50931       -0.14853       -0.03070
C          3.00860        0.81377       -1.11216
C          2.52190        0.44501       -2.49982
N          1.33610        0.92299       -2.96160
N          3.21235       -0.31600       -3.28485
C          2.99841       -1.52364       -0.22861
C          3.38411       -2.65103       -0.37679
H          2.76837        1.29369        1.40552
H          3.96303        0.18726        1.36100
H          1.41221       -0.16006       -0.03541
H          4.10512        0.85646       -1.12787
H          2.65084        1.83005       -0.89774
H          0.58538        1.07244       -2.30034
H          1.04381        0.45149       -3.81327
H          4.08005       -0.61532       -2.82560
H          3.71364       -3.65774       -0.49879
