18

C          1.02219       -0.11111        0.09037
O          2.44077        0.01614        0.06842
C          3.07808       -1.17845        0.26271
C          4.41018       -1.27212        0.21126
C          5.16527       -2.55155        0.42114
C          5.50619       -3.21150       -0.90930
C          6.28196       -4.49311       -0.72943
O          6.62147       -4.95587        0.35315
H          0.58941        0.88297       -0.05433
H          0.68010       -0.49780        1.05653
H          0.67868       -0.75833       -0.72379
H          2.43717       -2.03034        0.45038
H          4.99390       -0.37453        0.01879
H          4.58355       -3.24141        1.04591
H          6.08060       -2.33161        0.98351
H          6.10756       -2.54333       -1.53554
H          4.59134       -3.46076       -1.46003
H          6.54018       -5.01311       -1.66801
