22

C          1.03270        0.15852        0.04740
C          2.56186        0.08508        0.02683
C          3.02266       -1.38514       -0.01835
C          4.54528       -1.54129        0.01760
C          4.96163       -3.00616       -0.00143
O          6.38095       -3.10284        0.01060
C          3.08461        0.87460       -1.14992
C          3.91894        1.91668       -1.03801
H          0.63363       -0.33217        0.94156
H          0.59491       -0.33325       -0.82908
H          0.68703        1.19851        0.05627
H          2.92804        0.53095        0.96122
H          2.62968       -1.87222       -0.92060
H          2.59140       -1.91862        0.83871
H          4.95557       -1.05788        0.91282
H          5.00797       -1.03490       -0.83753
H          4.58897       -3.51479       -0.89635
H          4.57916       -3.53303        0.87809
H          6.71110       -2.62865       -0.77245
H          2.76053        0.56467       -2.14179
H          4.27492        2.26181       -0.07212
H          4.26849        2.44610       -1.91884
