18

C          1.06932       -0.11368       -0.03435
C          2.56940       -0.04989        0.07121
C          3.26188        0.50688        1.07833
C          2.67296        1.20644        2.27803
C          2.37730        0.24821        3.43074
O          3.57565       -0.30887        3.95529
C          3.32940       -0.69931       -1.07381
C          3.98132       -1.25637       -2.05600
H          0.55450        0.32802        0.82260
H          0.74292       -1.15669       -0.10614
H          0.73235        0.41224       -0.93399
H          4.35089        0.48131        1.04795
H          1.75839        1.74278        2.00181
H          3.38851        1.96886        2.60806
H          1.71498       -0.56975        3.12402
H          1.88368        0.79035        4.24409
H          3.96023       -0.86558        3.25576
H          4.51462       -1.71011       -2.85857
