21

C          1.95619       -0.81618       -1.01188
N          2.39174        0.01168        0.10908
N          2.88968       -0.80757        1.15962
C          1.98892       -1.27120        2.09801
N          0.69983       -1.24548        2.06279
C          4.35291       -0.85849        1.34942
C          4.78350       -0.03626        2.56092
C          4.82665       -2.30745        1.45022
H          1.68525       -0.17173       -1.85389
H          1.08077       -1.42375       -0.76475
H          2.75766       -1.48179       -1.35245
H          1.64103        0.62255        0.43704
H          2.47338       -1.72036        2.98015
H          0.41396       -0.83246        1.17492
H          4.84089       -0.42406        0.46580
H          4.30867       -0.38142        3.48546
H          4.52068        1.01935        2.42839
H          5.86810       -0.09580        2.70391
H          4.42122       -2.80999        2.33386
H          5.91930       -2.35239        1.51201
H          4.51404       -2.87835        0.56918
