18

C          1.17852       -0.03482       -0.39425
C          2.61306        0.00767        0.04166
C          3.20794        1.14733        0.42495
C          3.32738       -1.31828        0.04691
O          2.66839       -2.35986        0.06639
C          4.85171       -1.36129        0.01430
C          5.43083       -1.42412        1.39700
C          6.29499       -0.52731        1.89106
H          0.71524        0.95802       -0.36855
H          0.59040       -0.68967        0.25627
H          1.10591       -0.40425       -1.42259
H          2.66246        2.08769        0.42743
H          4.23175        1.19611        0.77526
H          5.23783       -0.51752       -0.56727
H          5.14282       -2.26324       -0.53874
H          5.12616       -2.26640        2.01684
H          6.63572        0.32285        1.30763
H          6.68574       -0.62810        2.89928
