16

C          1.03963        0.10774       -0.00608
C          2.55514        0.06662        0.02400
O          3.05231        1.11391        0.86122
C          4.33228        0.63595        1.26265
O          4.33161       -0.78686        1.30086
C          3.12538       -1.20109        0.64637
C          3.48783       -2.23004       -0.41206
C          3.79875       -3.11268       -1.31998
H          0.69498        1.06022       -0.42248
H          0.62436        0.04305        1.00566
H          0.62996       -0.70680       -0.61043
H          2.94703        0.23726       -0.98706
H          4.58602        1.03582        2.24896
H          5.08581        0.96985        0.54098
H          2.46444       -1.63977        1.40133
H          4.06086       -3.83628       -2.05716
