20

C          2.32895        1.47914        0.56777
C          2.50364        0.08968       -0.02976
O          3.30133        0.17354       -1.21014
C          3.13518       -0.90489        0.94444
C          4.51428       -0.51402        1.47744
C          2.19193       -1.43595        2.04609
O          2.53528       -2.80688        1.71505
C          3.07851       -2.36432        0.44237
H          1.83739        2.14012       -0.15515
H          3.29279        1.94462        0.79925
H          1.72825        1.45190        1.48149
H          1.51804       -0.27059       -0.34800
H          4.09835        0.69453       -1.00975
H          4.46517        0.40269        2.07350
H          5.22689       -0.35630        0.66147
H          4.92972       -1.29375        2.12619
H          1.12039       -1.26097        1.90223
H          2.46368       -1.18679        3.07598
H          2.37626       -2.57794       -0.37100
H          4.04055       -2.83571        0.22032
