20

C          0.90275        0.06288       -0.02556
C          2.42840        0.01720       -0.17174
C          3.05596        0.36925        1.17963
O          2.89328       -1.29685       -0.48886
C          2.60858       -1.69690       -1.82268
C          3.15008       -0.68012       -2.80790
C          2.62174        0.69546       -2.45196
O          2.90457        1.00090       -1.09294
H          0.55804       -0.66557        0.71630
H          0.38907       -0.17673       -0.96117
H          0.56669        1.06299        0.26865
H          2.76850       -0.34956        1.95456
H          2.77381        1.37748        1.50213
H          4.15019        0.34782        1.11016
H          1.53101       -1.84600       -1.94776
H          3.08647       -2.66790       -1.98888
H          2.88709       -0.94882       -3.83551
H          4.24376       -0.66467       -2.72680
H          1.54564        0.77512       -2.63821
H          3.10969        1.45398       -3.07250
