18

C          0.97778        0.81773       -0.20146
C          1.91876       -0.13567       -0.16337
C          3.10448       -0.13517        0.76246
C          4.39383       -0.06381       -0.00937
C          5.63905       -0.11527        0.49231
C          6.03581       -0.25620        1.93220
C          6.88989       -1.49327        2.07829
O          8.08093       -1.46717        2.37825
H          0.15682        0.75797       -0.91004
H          1.00481        1.67806        0.45996
H          1.83761       -0.97473       -0.85237
H          3.07246       -1.05771        1.35512
H          3.04527        0.71235        1.45635
H          4.30313        0.06148       -1.08780
H          6.46811       -0.02690       -0.21051
H          5.18222       -0.34657        2.60886
H          6.62404        0.61466        2.23599
H          6.37475       -2.45461        1.90169
