17

N          1.05871       -0.13034       -0.46273
C          2.42250       -0.25909       -0.48159
C          3.15986       -0.96215        0.38463
C          4.65450       -1.00089        0.34996
N          5.35605        0.05300        0.05177
N          5.35172       -2.11838        0.72364
C          4.95457       -3.42800        0.77494
C          5.68386       -4.47132        1.18176
H          0.62474        0.10520       -1.35230
H          0.55398       -0.83450        0.07044
H          2.88794        0.29810       -1.29320
H          2.69840       -1.53574        1.17983
H          4.74019        0.84552       -0.15184
H          6.34231       -1.94368        0.85929
H          3.94652       -3.59541        0.41088
H          6.69212       -4.35640        1.56100
H          5.26628       -5.47296        1.15187
