18

C          0.91368        0.05803       -0.33792
C          2.39624        0.00994       -0.05960
C          3.26163       -0.72763       -1.07150
C          3.27533        0.76931       -1.04435
O          4.45888        1.38284       -0.51308
C          2.73160       -0.00113        1.43908
C          2.35873       -1.13112        2.36843
O          3.68799       -0.99150        1.85785
H          0.69281        0.09914       -1.40975
H          0.47245        0.94391        0.13058
H          0.41979       -0.82984        0.06968
H          2.77897       -1.21421       -1.91122
H          4.14113       -1.25589       -0.72058
H          2.79351        1.28171       -1.87220
H          4.84317        0.86497        0.21704
H          2.82301        0.98025        1.89763
H          1.75116       -1.93990        1.98298
H          2.19677       -0.90172        3.41411
