22

C          1.10252        0.01483        0.05599
C          2.59724       -0.13087       -0.05771
C          3.12710       -1.08473       -0.84295
C          3.39637        0.86246        0.76602
C          4.92243        0.74435        0.66960
C          5.63790        1.78613        1.52760
C          7.14971        1.63672        1.41274
O          7.79752        2.60858        2.22117
H          0.56672       -0.72151       -0.55219
H          0.79150        1.01035       -0.27782
H          0.78539       -0.11995        1.09549
H          2.49619       -1.76494       -1.40584
H          4.19630       -1.22747       -0.95394
H          3.10197        0.75042        1.81777
H          3.10339        1.87519        0.45997
H          5.23645        0.86871       -0.37412
H          5.23556       -0.25656        0.99152
H          5.34072        1.68738        2.57901
H          5.34438        2.79869        1.22438
H          7.48579        1.76526        0.37811
H          7.46935        0.64701        1.75387
H          7.56956        3.48392        1.86451
