16

C          1.01983       -0.25074        0.18203
C          2.27401       -0.02809       -0.22816
C          3.08869        1.03883        0.41492
C          4.55718        1.30667       -0.14257
O          4.37001        2.65369        0.56553
C          3.04253        2.50967       -0.19276
C          3.41251        2.43689       -1.63339
C          4.46155        1.60457       -1.59896
H          0.42285       -1.03810       -0.26951
H          0.55924        0.33001        0.97585
H          2.71123       -0.63448       -1.01569
H          3.03276        0.99248        1.51171
H          5.39929        0.73151        0.24171
H          2.28302        3.21715        0.13898
H          2.96208        2.94439       -2.46872
H          5.09041        1.25447       -2.39885
