20

N          2.94780        1.27817        0.08897
C          2.11078        0.09848       -0.15194
C          2.92247       -1.12439        0.26085
N          3.41207       -1.10288        1.66784
C          2.60053       -2.49343       -0.29137
C          3.76770       -1.73002       -0.84787
C          5.14761       -2.14115       -0.57668
C          5.88804       -2.94688       -1.34641
H          2.49888        2.09310       -0.32381
H          3.82632        1.15616       -0.41638
H          1.82226        0.05516       -1.20752
H          1.19818        0.16763        0.44830
H          2.61022       -1.11859        2.29761
H          3.82808       -0.17915        1.81962
H          1.71667       -2.60342       -0.90913
H          2.80405       -3.36085        0.32908
H          3.63305       -1.33171       -1.85059
H          5.61870       -1.71405        0.30825
H          5.48565       -3.39528       -2.24878
H          6.91870       -3.16524       -1.08556
