16

C          1.01678       -0.10211       -0.06360
C          2.53414       -0.09298       -0.03398
C          3.04080        0.36199        1.32495
C          3.47541        0.75227        2.49064
C          3.89857        1.23291        3.78715
O          3.15952        1.11095        4.75972
C          5.24083        1.94384        3.84203
O          5.60031        2.34916        5.15664
H          0.65681       -0.43010       -1.04372
H          0.61227        0.89681        0.13218
H          0.61142       -0.78139        0.69407
H          2.92106        0.58275       -0.80414
H          2.92021       -1.09662       -0.24162
H          5.19683        2.83682        3.21162
H          6.02129        1.27400        3.47039
H          4.76472        2.49246        5.64323
