22

C          1.12610       -0.04239        0.04004
C          2.58826       -0.05763        0.02046
C          3.78993       -0.06883        0.02301
C          5.26195       -0.07817        0.07051
C          5.85503       -0.81759       -1.13177
C          7.39688       -0.82473       -1.15705
C          8.00368       -1.52816        0.05852
C          7.89249       -1.50152       -2.43815
H          0.75307        0.00972        1.06778
H          0.71897       -0.94765       -0.42169
H          0.73696        0.82223       -0.50535
H          5.57548       -0.55581        1.00448
H          5.63419        0.95248        0.09182
H          5.49014       -0.34435       -2.05359
H          5.48124       -1.85018       -1.14979
H          7.75361        0.21317       -1.16532
H          7.61261       -2.54557        0.16470
H          7.79268       -0.98146        0.98237
H          9.09344       -1.59366       -0.03396
H          7.56584       -2.54606       -2.48703
H          8.98661       -1.48739       -2.48865
H          7.51213       -0.98457       -3.32530
