19

C          1.78253        1.02581       -0.18338
N          2.60968       -0.12841        0.14764
N          2.87497       -0.91358       -1.01731
C          1.82421       -1.64405       -1.72901
C          1.58033       -3.03188       -1.19550
C          2.13441       -3.63760       -0.13685
C          4.20821       -1.14576       -1.26776
N          5.20538       -0.61669       -0.64066
H          1.80521        1.73806        0.64703
H          0.73828        0.73712       -0.34131
H          2.14585        1.54791       -1.07561
H          2.16103       -0.69809        0.86813
H          2.09398       -1.71964       -2.78840
H          0.87920       -1.09095       -1.69328
H          0.85661       -3.60422       -1.77422
H          2.87242       -3.15131        0.49471
H          1.86401       -4.65756        0.12145
H          4.39164       -1.85926       -2.09131
H          4.75298       -0.00521        0.05766
