17

N          1.12394       -0.57906       -1.61845
N          2.46842       -0.71631       -1.64434
C          3.10778        0.31395       -1.18674
C          4.57297        0.35837       -1.13989
C          5.30058        1.36737       -0.65865
C          6.74474        1.05266       -0.80643
N          6.80919       -0.35922       -1.23383
C          5.43514       -0.73078       -1.65228
H          0.68732       -1.44163       -1.95364
H          0.77121       -0.43819       -0.66964
H          2.58539        1.21017       -0.80646
H          4.92212        2.29017       -0.24617
H          7.28271        1.18935        0.13672
H          7.20148        1.69449       -1.56678
H          7.03811       -0.92236       -0.41510
H          5.16631       -1.70587       -1.23425
H          5.38703       -0.78649       -2.74524
