16

O          1.14598        0.07209       -0.08433
C          2.56477        0.05025        0.03077
C          3.00465       -0.23495        1.44331
C          2.18226       -0.44559        2.48382
C          4.49905       -0.29002        1.71555
C          5.78096       -0.33726        1.94908
C          7.27536       -0.39234        2.22132
C          8.01817       -1.39087        1.73551
H          0.94684        0.26024       -1.01600
H          2.94673        1.02481       -0.29033
H          2.94851       -0.72231       -0.64355
H          1.10406       -0.42089        2.35952
H          2.56212       -0.64737        3.47995
H          7.69709        0.40727        2.82123
H          7.58232       -2.18585        1.13857
H          9.08451       -1.43242        1.93014
