16

O          2.28764       -0.79842        1.29801
C          2.44966       -0.10792        0.06994
C          2.88717        1.27535        0.36545
C          2.29532        2.43550        0.02277
C          3.04436        3.62101        0.46709
O          4.41230        3.84310        0.08758
C          4.20491        3.06873        1.26947
C          4.16273        1.56354        1.13224
H          1.98609       -1.69479        1.07525
H          1.49634       -0.12141       -0.46792
H          3.20123       -0.62695       -0.53269
H          1.37326        2.51664       -0.53727
H          2.47696        4.44579        0.87797
H          4.44563        3.46801        2.24041
H          4.13066        1.09923        2.12312
H          5.04029        1.19786        0.58980
