18

N          1.00910       -0.00445        0.02570
C          2.47295       -0.06358        0.08782
C          3.04514        1.03253        0.97328
C          4.43935        0.51279        1.26006
N          4.29109       -0.93351        1.44622
C          3.07350       -1.34436        0.71691
C          3.43595       -2.37332       -0.34152
C          3.74687       -3.25596       -1.24944
H          0.72156        0.90305       -0.33899
H          0.61513       -0.07258        0.96293
H          2.85836        0.06987       -0.93233
H          2.47849        1.12985        1.90838
H          3.05820        2.00743        0.47564
H          4.88172        0.98797        2.14097
H          5.10290        0.69970        0.40789
H          4.14696       -1.13681        2.43404
H          2.36962       -1.79745        1.42639
H          4.00499       -3.97626       -1.99028
