20

C          0.92632       -0.08201        0.08632
C          2.44072       -0.09414        0.06691
C          3.15880        0.99345        0.90222
C          4.23609       -0.07426        1.29394
O          4.63148       -0.03088        2.68437
C          3.14559       -1.14617        0.95688
C          5.41065       -0.10215        0.36464
C          6.41044       -0.97435        0.54825
H          0.54251        0.76667       -0.48907
H          0.53403       -0.00573        1.10542
H          0.52886       -0.99804       -0.36240
H          2.80629       -0.12558       -0.96954
H          2.57914        1.36472        1.75717
H          3.50709        1.86079        0.33254
H          3.80235       -0.03191        3.18944
H          2.56087       -1.46713        1.82832
H          3.48178       -2.04407        0.42877
H          5.44406        0.59677       -0.46484
H          6.40746       -1.67369        1.37911
H          7.26289       -0.99296       -0.12254
