19

N          3.42557        0.89154       -0.99582
C          2.48080        0.16396       -0.14494
C          2.84705        0.19332        1.35390
C          2.86921        1.60357        1.91796
C          1.96773        1.71807        2.90705
C          1.21581        0.48548        3.16891
C          1.92728       -0.73411        3.68019
C          1.78491       -0.52792        2.19115
H          3.16586        0.76014       -1.97289
H          4.35877        0.49948       -0.88708
H          2.43787       -0.87892       -0.48266
H          1.47897        0.58366       -0.29682
H          3.82218       -0.28326        1.51305
H          3.52304        2.38535        1.56188
H          1.79759        2.63010        3.46709
H          0.13966        0.56311        3.25350
H          1.32284       -1.50545        4.14485
H          2.90413       -0.61396        4.13500
H          1.11689       -1.17536        1.64174
