20

C          0.95238        0.20580       -0.18651
C          2.47218        0.10536       -0.19889
C          3.02639       -1.10453        0.58544
C          2.50379       -2.40772        0.01220
C          1.78248       -3.30518        0.69550
C          4.53927       -1.06059        0.58090
C          5.30676        0.04659        1.26201
O          5.14928       -1.24232        1.86744
H          0.63950        1.16310       -0.61576
H          0.55964        0.14858        0.83348
H          0.49359       -0.58904       -0.78219
H          2.87258        1.03022        0.23504
H          2.82441        0.07812       -1.23771
H          2.67975       -1.01059        1.62431
H          2.74298       -2.61647       -1.02943
H          1.51873       -3.15285        1.73776
H          1.44359       -4.22213        0.22256
H          4.99633       -1.54377       -0.27317
H          4.76641        0.87642        1.69881
H          6.28324        0.30146        0.86866
