22

C          0.95236        0.05047        0.17809
C          2.46843        0.09393       -0.01174
C          2.89443        0.03134       -1.48817
C          2.38432        1.21425       -2.30412
O          2.80323        1.08273       -3.65708
C          3.18760        1.17102        0.85645
C          4.20209        0.09853        1.28892
C          3.18955       -0.97716        0.86420
H          0.46822        0.93206       -0.25253
H          0.68214        0.02721        1.23990
H          0.52556       -0.84158       -0.29213
H          2.53396       -0.90004       -1.94375
H          3.98812       -0.01053       -1.57540
H          2.75956        2.16582       -1.91270
H          1.29246        1.25896       -2.30712
H          3.77468        1.07331       -3.66314
H          2.58805        1.55687        1.68954
H          3.62233        2.02188        0.32452
H          4.46500        0.10144        2.35051
H          5.12316        0.09611        0.69641
H          2.59538       -1.36039        1.70267
H          3.61737       -1.83205        0.33171
