20

O          2.80377       -0.17987        1.39170
C          2.37445       -0.07408        0.04175
C          2.91064       -1.24896       -0.76705
C          4.44132       -1.27896       -0.79819
C          4.95797       -2.46040       -1.61965
C          6.48257       -2.49625       -1.63683
C          7.02689       -3.65543       -2.43558
O          6.33997       -4.47799       -3.03217
H          2.42897        0.57878        1.87064
H          2.73019        0.87692       -0.36730
H          1.28002       -0.07636        0.02614
H          2.52003       -1.18922       -1.78952
H          2.54715       -2.18535       -0.32661
H          4.83423       -1.34929        0.22311
H          4.81733       -0.34135       -1.22534
H          4.57719       -2.39271       -2.64630
H          4.57194       -3.39849       -1.20154
H          6.87441       -2.58658       -0.61789
H          6.88284       -1.57641       -2.07662
H          8.12802       -3.72544       -2.46062
