16

N          0.98866        0.02985        0.14756
C          2.27490        0.00907        0.11412
N          3.06004        0.71288        0.96605
C          4.42501        0.76988        1.03178
C          5.15257        1.48552        1.89935
C          6.64999        1.48593        1.92983
C          7.16427        2.89861        1.70566
C          7.60543        4.11040        1.51337
H          0.61980       -0.57848       -0.59179
H          2.82552       -0.59723       -0.62639
H          2.54774        1.27187        1.64063
H          4.91731        0.15223        0.28274
H          4.65338        2.09682        2.64731
H          7.07374        0.82707        1.16378
H          6.99603        1.12900        2.90589
H          7.96333        5.10156        1.35474
