20

C          0.97995       -0.05059       -0.01659
C          2.50902       -0.11221       -0.04159
C          3.01723        0.01433       -1.48636
C          3.11335        0.98284        0.84060
O          4.42937        0.52365        1.18082
C          4.32233       -0.89380        1.38789
C          3.11578       -1.32962        0.61145
C          2.65948       -2.58939        0.56349
H          0.62224        0.91426       -0.39373
H          0.59036       -0.17380        1.00053
H          0.53468       -0.83439       -0.63937
H          2.67140        0.94968       -1.94128
H          2.65264       -0.81200       -2.10750
H          4.11222        0.00846       -1.53976
H          2.55310        1.12839        1.77304
H          3.19110        1.95003        0.33373
H          4.19898       -1.07820        2.45971
H          5.24118       -1.36509        1.02880
H          3.16957       -3.39233        1.08741
H          1.77503       -2.85472       -0.00657
