18

C          1.02414        0.09250       -0.02935
C          2.54414        0.09250       -0.02935
C          3.84799        0.09250       -0.02935
C          5.36799        0.09250       -0.02935
O          5.72955        1.49408        0.04031
C          6.07661       -0.55555        1.16621
C          6.32843       -2.05538        1.08613
O          5.16588       -2.78703        1.42917
H          0.65097        0.64596       -0.89553
H          0.65105        0.56588        0.88309
H          0.65106       -0.93440       -0.07553
H          5.75050       -0.28634       -0.98193
H          5.22305        1.86826        0.78419
H          5.55289       -0.30816        2.09625
H          7.06801       -0.08650        1.24462
H          7.11564       -2.33224        1.80118
H          6.67741       -2.36595        0.09548
H          4.99589       -2.64154        2.37692
