20

N          0.92761        0.51797        0.37634
C          2.01718       -0.13283        1.08696
C          3.17559        0.87021        1.27676
C          4.11926       -0.31764        0.98137
C          2.95996       -0.91869        0.11818
C          3.01177       -0.63160       -1.37405
C          4.10464       -1.15120       -2.26894
N          2.75208       -1.69255       -2.34466
H          0.30970        1.05930        0.98068
H          0.32452       -0.13076       -0.13112
H          1.72475       -0.68584        1.98644
H          3.24780        1.67006        0.52772
H          3.27180        1.31236        2.27096
H          5.04490       -0.07216        0.45489
H          4.36583       -0.91965        1.86562
H          2.87145       -2.00370        0.27588
H          2.61657        0.35118       -1.60694
H          4.86760       -1.79186       -1.84616
H          4.41896       -0.52523       -3.09493
H          2.70485       -2.60828       -1.89582
