16

N          1.01265        0.00208       -0.18927
N          2.41206       -0.05077       -0.08798
C          3.22839        1.03712       -0.01626
C          4.52718        0.58004        0.07580
C          4.47919       -0.83955        0.05324
C          5.60321       -1.71554        0.10804
C          5.56768       -3.05505        0.09634
C          3.14923       -1.19683       -0.04399
H          0.63583        0.80260        0.31251
H          0.57950       -0.81365        0.23666
H          2.83255        2.04216       -0.04676
H          5.40871        1.20477        0.14045
H          6.58355       -1.24445        0.15957
H          4.63873       -3.61178        0.04459
H          6.48779       -3.62885        0.13633
H          2.67189       -2.16439       -0.09880
