20

C          0.94383        0.15701       -0.02309
C          2.43192        0.11777       -0.04846
C          3.23162       -0.69232       -1.04069
C          2.60576       -1.51621       -2.11752
C          3.24035        0.82428       -1.12540
O          2.50057        1.34892       -2.24299
C          4.44820        1.52956       -0.65981
C          4.47774        2.74703       -0.10285
H          0.56426       -0.54078        0.73032
H          0.48391       -0.10024       -0.97989
H          0.60427        1.16119        0.25085
H          2.81771        0.15755        0.96752
H          4.12100       -1.18657       -0.66246
H          1.72061       -1.05369       -2.56351
H          2.31026       -2.49205       -1.72082
H          3.32870       -1.68224       -2.92287
H          1.70801        1.82031       -1.94268
H          5.39454        1.00875       -0.79637
H          3.56864        3.32063        0.04275
H          5.41610        3.19765        0.20709
