18

C          1.17795        0.47716        0.11881
C          2.63377        0.16445       -0.01836
C          3.14488       -0.98397       -0.50443
C          2.37047       -2.19255       -0.96099
C          2.08182       -2.27374       -2.44010
C          2.34705       -1.36707       -3.39087
C          4.63155       -1.08798       -0.53426
O          5.22690       -2.09967       -0.88218
H          1.05906        1.48647        0.52879
H          0.68606       -0.21586        0.80736
H          0.67567        0.45577       -0.85252
H          3.29873        0.96414        0.30383
H          1.41191       -2.24603       -0.43046
H          2.90716       -3.10401       -0.66734
H          1.60431       -3.20236       -2.75207
H          2.82637       -0.41837       -3.17760
H          2.09032       -1.56718       -4.42736
H          5.18286       -0.18982       -0.20648
