16

O          4.69175       -2.07185        0.47945
C          4.17221       -0.97248        0.33511
C          4.90447        0.15288       -0.27606
C          4.30732        1.34026       -0.44591
C          5.05782        2.45322       -1.07658
C          4.63072        3.86672       -0.65154
C          6.12930        4.11471       -0.49962
O          6.39599        2.69078       -0.55306
H          3.13406       -0.76969        0.64657
H          5.93216       -0.03995       -0.56468
H          3.27740        1.51421       -0.15274
H          5.10442        2.32838       -2.16698
H          4.07294        3.93745        0.28742
H          4.13400        4.45996       -1.42306
H          6.43859        4.55616        0.45113
H          6.60969        4.63768       -1.33229
