18

O          0.62229        0.05514       -0.19356
C          2.00505        0.15506        0.16101
C          2.94452       -0.80649       -0.51010
C          2.57238       -1.61602       -1.72839
C          2.88451       -0.67511       -2.90194
O          4.27243       -0.76954       -3.23796
C          2.57236        0.72983       -2.36490
C          2.94323        0.64619       -0.90656
H          0.14270       -0.51084        0.43621
H          2.23749        0.44851        1.18138
H          3.79555       -1.19202        0.03236
H          1.50698       -1.86965       -1.70914
H          3.15620       -2.54029       -1.77811
H          2.31363       -0.91992       -3.80121
H          4.78333       -0.52563       -2.44578
H          1.50760        0.96010       -2.47863
H          3.15919        1.50063       -2.87476
H          3.78850        1.26011       -0.63031
