22

C          0.99589       -0.06072        0.00266
C          2.51480       -0.06873        0.08647
C          3.06606        1.02793        0.99043
C          4.49139        0.56083        1.24418
C          4.36415       -0.95478        1.44646
C          5.63225       -1.69765        1.05166
C          3.07514       -1.36205        0.69750
O          3.28028       -2.34291       -0.30604
H          0.63973        0.87516       -0.43990
H          0.53949       -0.15912        0.99347
H          0.63738       -0.88820       -0.61818
H          2.91089        0.06351       -0.92945
H          2.50973        1.08429        1.93392
H          3.03610        2.01258        0.51408
H          4.93383        1.05449        2.11512
H          5.11814        0.78961        0.37346
H          4.19010       -1.13085        2.51709
H          5.89012       -1.52632        0.00123
H          5.51696       -2.77534        1.20500
H          6.47820       -1.36116        1.66019
H          2.36808       -1.78652        1.42055
H          3.85558       -1.96181       -0.99058
