18

C          0.97827       -0.13686        0.12488
C          2.45015        0.07588       -0.04664
C          3.03005        1.02870       -0.80226
C          2.25226        2.02654       -1.62097
C          4.53596        1.23594       -0.77423
C          5.39165        0.54758       -1.83374
O          4.74753       -0.26482       -2.69697
O          6.60695        0.70218       -1.89574
H          0.79878       -0.97927        0.80120
H          0.49099       -0.36477       -0.82726
H          0.51105        0.74625        0.57554
H          3.07832       -0.58975        0.54822
H          1.16841        1.88701       -1.54505
H          2.51913        1.94552       -2.67846
H          2.46820        3.04454       -1.28174
H          4.92464        0.90437        0.19635
H          4.74279        2.30955       -0.85103
H          3.78993       -0.33645       -2.52110
