18

C          1.01155       -0.21383        0.14371
C          2.52926       -0.13564        0.04124
C          3.04252       -0.14190       -1.40685
C          2.53585        1.07527       -2.16329
C          2.10123        2.11936       -2.81215
C          4.56252       -0.14190       -1.40685
C          5.86638       -0.14190       -1.40685
C          7.38638       -0.14190       -1.40685
H          0.70981       -0.28485        1.19457
H          0.62558       -1.09323       -0.38037
H          0.53343        0.67737       -0.27548
H          2.95638       -0.99135        0.58115
H          2.87421        0.76511        0.56661
H          2.69477       -1.04576       -1.92155
H          1.75101        2.97420       -3.34309
H          7.75948        0.49429       -2.21425
H          7.75953       -1.15921       -1.55407
H          7.75946        0.23928       -0.45221
