18

O          1.03963       -0.04086        0.01418
C          2.45583        0.04060        0.08168
C          2.87227       -0.46236        1.43138
C          3.55770        0.24968        2.33709
C          3.00367       -0.80874       -1.02266
C          3.82585       -0.35805       -1.98321
C          4.32902       -1.19872       -3.04257
C          5.13243       -0.74512       -4.01164
H          0.70257        0.47174        0.76754
H          2.73686        1.09154       -0.05425
H          2.57957       -1.48099        1.67911
H          3.87572        1.26933        2.14347
H          3.82042       -0.18394        3.29743
H          2.68042       -1.84728       -1.02688
H          4.13283        0.68577       -1.98425
H          4.03427       -2.24611       -3.04608
H          5.45383        0.29036       -4.05950
H          5.48625       -1.41329       -4.79051
