16

O          2.02326       -1.00892        0.19095
C          2.18190        0.19745        0.02626
C          3.19192        1.04210        0.80655
O          2.84921        2.41757        0.95103
C          3.10507        3.22930       -0.19531
C          4.55539        3.16290       -0.68319
C          5.18181        1.81966       -0.49060
C          4.54974        0.85245        0.18726
H          1.64948        0.71683       -0.78768
H          3.21084        0.63274        1.82230
H          2.87286        4.26498        0.08257
H          2.40723        2.95478       -0.99442
H          5.16003        3.89857       -0.14240
H          4.58822        3.43857       -1.74349
H          6.17303        1.64414       -0.89566
H          5.01815       -0.11643        0.32305
