16

O          1.58274       -0.75786        0.98019
C          2.39016       -0.09205        0.02485
C          2.92642       -1.12195       -0.91204
C          4.23530       -1.33208       -1.11853
C          4.74400       -2.33255       -2.02901
C          6.05712       -2.52584       -2.21025
C          6.54163       -3.55455       -3.14959
O          7.73915       -3.73600       -3.32957
H          1.28459       -0.08341        1.61306
H          3.18667        0.44671        0.54802
H          1.77231        0.62799       -0.52006
H          2.18011       -1.71608       -1.43378
H          4.96469       -0.73284       -0.57609
H          4.01309       -2.93221       -2.56859
H          6.82153       -1.95720       -1.69416
H          5.77270       -4.14199       -3.67697
