16

C          1.07481        0.14676        0.01338
C          2.59234        0.18149        0.04327
C          3.08484        1.40444        0.68219
C          3.49557        2.41998        1.17883
C          3.99656        3.68225        1.73868
O          5.08700        4.17462        0.94670
C          4.72053        4.89708       -0.13975
O          3.58879        5.19580       -0.47897
H          0.72511       -0.77356       -0.46485
H          0.66993        0.99678       -0.54829
H          0.65715        0.18488        1.02576
H          2.97703        0.12071       -0.98111
H          2.96770       -0.69626        0.58160
H          4.38953        3.51046        2.74652
H          3.20354        4.43346        1.83385
H          5.62819        5.19316       -0.68780
