18

C         -1.06046        0.20192       -1.10437
C         -0.70707        1.19055        0.05597
C         -1.15237       -0.03285        0.93051
N         -0.64210       -0.90709       -0.18494
C          0.84926       -1.01019       -0.12370
C          1.61274        0.26858        0.16914
N          1.75298        1.35755       -0.80293
C          0.75871        1.51364        0.24180
H         -0.50903        0.28319       -2.04561
H         -2.12719        0.17453       -1.36121
H         -1.34711        2.07577        0.12169
H         -2.23654       -0.11130        1.08843
H         -0.66015       -0.15701        1.90099
H          1.21271       -1.44571       -1.06211
H          1.08923       -1.73460        0.66422
H          2.44003        0.14082        0.85415
H          1.34449        1.10712       -1.70252
H          0.93975        2.21444        1.04538
