16

O          1.13799        0.02214        0.10729
C          2.55548        0.08421       -0.04310
C          2.95091        0.65390       -1.38541
C          2.05805        1.04751       -2.31238
C          4.44483        0.72698       -1.55738
O          5.18450        0.34146       -0.65312
C          5.00989        1.26788       -2.82644
C          6.33635        1.34379       -3.00110
H          0.97425       -0.35206        0.98954
H          2.94530       -0.93337        0.06698
H          2.94737        0.71050        0.76544
H          0.99149        0.96321       -2.11365
H          2.31092        1.45794       -3.27955
H          4.35245        1.60264       -3.61423
H          7.03399        1.01797       -2.23398
H          6.75371        1.73651       -3.92220
