20

C         -1.68192        0.10179        0.82768
C         -1.05117        1.32479        0.17312
C          0.09389        0.79967       -0.70683
C          1.47826        1.02490       -0.14176
C          1.67433       -0.15435        0.78123
O          0.95015       -1.24421        0.20099
C         -0.03887       -0.72176       -0.70217
C         -1.43632       -1.01557       -0.17557
H         -2.74660        0.24672        1.03347
H         -1.18409       -0.12058        1.77820
H         -0.72914        2.06536        0.91177
H         -1.79757        1.81056       -0.46788
H         -0.00099        1.22536       -1.71171
H          1.61253        1.98704        0.35992
H          2.20985        0.96678       -0.95709
H          1.26230        0.04110        1.77664
H          2.72675       -0.43031        0.89186
H          0.13319       -1.17097       -1.68500
H         -1.51590       -1.99884        0.29732
H         -2.16847       -0.94906       -0.98846
