16

C          0.91826       -0.13116       -0.05663
C          2.43859       -0.05504        0.03171
C          3.10457       -1.27453       -0.54451
C          4.05010       -0.99251       -1.44937
C          4.10795        0.47062       -1.61223
O          4.88969        1.06429       -2.32620
C          3.04239        1.06814       -0.75977
C          2.71812        2.36432       -0.81505
H          0.54171       -1.01197        0.47568
H          0.57019       -0.19103       -1.09388
H          0.45747        0.75061        0.40259
H          2.73590        0.03374        1.08419
H          2.85677       -2.28102       -0.23233
H          4.68597       -1.66838       -1.99412
H          3.24992        3.04189       -1.47816
H          1.91490        2.77632       -0.21490
