18

C          0.93935        0.04784       -0.23177
C          2.39916       -0.03536        0.02982
C          3.27400       -1.11330       -0.57851
C          2.84359       -2.05989       -1.65979
C          3.20319       -1.56219       -3.02582
C          3.27968       -0.24826       -3.26060
O          3.00335        0.71492       -2.31467
C          3.44939        0.33619       -0.98898
H          0.41195       -0.69858        0.37273
H          0.67659       -0.11601       -1.27936
H          0.56466        1.03428        0.06116
H          2.61300        0.23084        1.06099
H          4.05193       -1.54141        0.04384
H          1.76599       -2.25504       -1.61809
H          3.33877       -3.02322       -1.49460
H          3.41116       -2.27997       -3.81195
H          3.51221        0.19511       -4.21858
H          4.33261        0.84862       -0.62067
