18

N          1.98145        1.28821        0.24957
C          2.52544       -0.02541       -0.09634
C          3.02429       -0.07158       -1.54663
N          4.08540        0.93001       -1.86052
C          4.78278       -0.10095       -2.66136
C          4.05061       -1.19471       -1.85664
C          3.55247       -2.33062       -2.60440
C          3.13952       -3.27701       -3.21712
H          1.54874        1.24746        1.17078
H          1.24018        1.53139       -0.40743
H          1.75302       -0.78897        0.04720
H          3.33958       -0.24950        0.60216
H          2.18871       -0.01381       -2.25966
H          4.58454        1.24603       -1.02743
H          5.87275       -0.09346       -2.56426
H          4.53139       -0.05368       -3.72821
H          4.63167       -1.50415       -0.97607
H          2.77395       -4.11760       -3.76208
