18

O          1.71477       -0.45011       -0.92580
C          2.83273       -0.04263       -0.13337
C          3.59631       -1.10909        0.59324
C          4.20584       -0.43275       -0.59944
O          4.31174       -1.17930       -1.81383
C          5.09203        0.77304       -0.48303
C          4.10764        1.94734       -0.46803
C          2.87599        1.40400        0.26561
H          1.02410       -0.85800       -0.37871
H          3.26313       -2.13415        0.48231
H          3.99298       -0.88224        1.57537
H          4.74772       -2.03414       -1.66784
H          5.79782        0.85877       -1.31473
H          5.66419        0.73839        0.45107
H          3.82996        2.19883       -1.49996
H          4.52122        2.84355        0.00075
H          1.97167        1.94838       -0.02219
H          3.00252        1.49746        1.35067
