20

C          1.02103        0.02944        0.04284
C          2.50741        0.14539        0.14289
C          3.16301        1.02521        0.92004
C          2.53436        2.09444        1.76577
C          3.49932        3.25115        1.56492
C          4.88050        2.60180        1.52331
C          4.66300        1.19143        0.96923
O          5.23814        1.07090       -0.31965
H          0.75668       -0.83732       -0.57182
H          0.59160        0.91680       -0.43256
H          0.56917       -0.11305        1.02883
H          3.08402       -0.54792       -0.46716
H          2.52117        1.77819        2.81509
H          1.51902        2.36568        1.46395
H          3.42067        3.99712        2.36191
H          3.29299        3.75568        0.61251
H          5.28046        2.54109        2.54239
H          5.57850        3.19616        0.92370
H          5.12096        0.44866        1.63150
H          4.65348        1.54349       -0.93608
