17

N          1.30436        0.31266       -0.17333
N          2.64345        0.25432        0.01559
C          3.06404        0.63344        1.18149
C          2.31546        1.13790        2.39575
N          3.18863        0.80546        3.55486
C          4.56666        0.68804        3.01579
C          5.05477       -0.55734        2.33369
C          4.50194        0.56669        1.50532
H          1.07985       -0.09341       -1.08708
H          0.79335       -0.25340        0.50548
H          1.32839        0.68611        2.50433
H          2.21481        2.22597        2.31443
H          2.89452       -0.10517        3.91349
H          5.30198        1.35907        3.44713
H          4.47671       -1.47032        2.40492
H          6.12571       -0.72453        2.29547
H          5.17355        1.18256        0.92294
