18

C         -2.08640        0.62219        0.20679
C         -0.63208        0.99045        0.51074
C          0.44987        1.68460       -0.24569
C          1.47158        0.64773       -0.77788
C          1.80743       -0.48891        0.21024
N          0.78283       -1.53744        0.44281
C         -0.46425       -1.31979        0.21558
N         -1.02823       -0.18715       -0.28640
H         -2.60532        1.18769       -0.55366
H         -2.68684        0.17236        0.98417
H         -0.32614        0.79348        1.53725
H          0.96067        2.38326        0.42703
H          0.04320        2.27198       -1.07631
H          2.39335        1.18532       -1.03196
H          1.10540        0.21386       -1.71745
H          2.09957       -0.06699        1.17908
H          2.69192       -1.00709       -0.17927
H         -1.20210       -2.11875        0.39677
