20

C          0.96534       -0.37889        2.43448
O          2.38191       -0.38514        2.32245
C          2.80937       -0.82439        1.03458
C          4.33227       -0.80302        0.98193
C          4.95250       -1.71541        2.03902
C          6.46827       -1.70738        1.99248
C          7.17930       -2.54773        3.02137
O          7.10724       -1.06232        1.16199
H          0.70211       -0.02876        3.43619
H          0.56751       -1.38951        2.30194
H          0.52476        0.30074        1.69893
H          2.40626       -0.15436        0.26660
H          2.43779       -1.83881        0.84867
H          4.68577        0.22263        1.14563
H          4.66489       -1.10465       -0.01848
H          4.61693       -2.74684        1.88393
H          4.65111       -1.39557        3.04245
H          6.45845       -3.07777        3.64973
H          7.79027       -1.90178        3.65637
H          7.80598       -3.28465        2.51303
