18

C          0.94466       -0.00066        0.08329
C          2.46466       -0.00066        0.08329
C          3.76851       -0.00066        0.08329
C          5.28851       -0.00066        0.08329
C          5.79039       -0.46567       -1.28591
C          5.79390        1.40952        0.39468
C          5.78466       -0.93760        1.17717
O          6.84741       -1.55318        1.13441
H          0.57157        0.92133        0.53779
H          0.57157       -0.85526        0.65450
H          0.57157       -0.06804       -0.94243
H          5.41684        0.18013       -2.08936
H          5.45756       -1.48814       -1.50366
H          6.88489       -0.46204       -1.33461
H          5.44161        2.13415       -0.34869
H          6.88955        1.44367        0.40711
H          5.44680        1.75002        1.37773
H          5.16344       -0.97783        2.08989
