18

C          0.88987        0.10463       -0.03388
C          2.42678        0.12554       -0.02909
O          2.91332       -0.83072       -0.99213
C          2.95086        1.50573       -0.47323
O          2.54620        1.79078       -1.81595
C          3.00290       -0.21137        1.36764
C          2.56440       -1.58824        1.83920
C          2.18825       -2.76931        2.24369
H          0.49112        0.34353       -1.02616
H          0.47914        0.82312        0.68321
H          0.50150       -0.89048        0.20853
H          2.28156       -0.83797       -1.73369
H          4.04671        1.53541       -0.45753
H          2.57268        2.30206        0.17326
H          3.08025        1.20657       -2.38416
H          2.68880        0.53480        2.10645
H          4.09916       -0.21280        1.33002
H          1.88439       -3.73739        2.56910
