17

N          1.66119        1.12552        0.21396
C          2.17392       -0.23446        0.07865
C          3.08337       -0.27391       -1.09904
C          2.62766       -0.23644       -2.52893
N          1.25503       -0.58274       -2.93566
C          1.16761       -1.92492       -2.65841
N          2.18080       -2.51965       -2.10134
C          3.22701       -1.51819       -1.93646
H          1.08319        1.17213        1.05114
H          1.02900        1.29588       -0.56790
H          1.34188       -0.94069        0.00946
H          2.74464       -0.48994        0.97848
H          3.99948        0.26695       -0.87826
H          3.20943        0.30468       -3.26313
H          0.89871       -0.29798       -3.84144
H          0.24217       -2.42616       -2.98055
H          4.23982       -1.83911       -2.14692
