18

O          1.03920        0.14831        0.01433
C          2.45484       -0.00805       -0.06064
C          2.95116        0.50356       -1.40886
C          2.41188       -0.31789       -2.55025
O          1.65297       -1.27405       -2.41744
C          3.05398        0.78355        1.06879
C          2.75631        0.40139        2.49745
C          4.13607        0.19436        1.93989
H          0.66699       -0.53432       -0.57942
H          2.68182       -1.07522        0.05930
H          4.04510        0.47031       -1.46205
H          2.62657        1.53593       -1.57786
H          2.72642        0.00960       -3.55601
H          3.07846        1.84785        0.85866
H          2.13017       -0.46614        2.67299
H          2.60218        1.20614        3.20734
H          4.45481       -0.82793        1.77071
H          4.92397        0.85149        2.28958
