22

N          0.92617        0.12891        0.05685
C          2.38696        0.08066       -0.04298
C          2.87167       -1.32915       -0.40828
C          2.56466       -1.71129       -1.85909
C          3.06501       -0.67396       -2.87345
N          4.52591       -0.72351       -2.97100
C          2.57999        0.73583       -2.50907
C          2.88522        1.11854       -1.05794
H          0.60728       -0.57327        0.72421
H          0.49496       -0.11601       -0.83232
H          2.78565        0.34294        0.94405
H          2.42479       -2.07153        0.26487
H          3.95444       -1.38568       -0.23968
H          1.48075       -1.83149       -1.98035
H          3.00141       -2.69462       -2.07519
H          2.66792       -0.93712       -3.86099
H          4.95581       -0.46806       -2.08404
H          4.84556       -0.02874       -3.64572
H          1.49742        0.79234       -2.67901
H          3.02792        1.47779       -3.18197
H          2.44614        2.10089       -0.84238
H          3.96878        1.24139       -0.93612
