20

C          1.93292        0.04448        0.65149
C          3.33078        0.04821        0.01993
C          3.66651       -1.37862       -0.46456
C          4.32824       -1.53208        0.97558
C          4.74131       -0.06019        0.74335
C          4.81558        1.34341        1.30997
C          4.01263        2.21434        0.30684
O          3.47564        1.29506       -0.68096
H          1.70732       -0.87559        1.20628
H          1.17922        0.13415       -0.13783
H          1.79052        0.88306        1.33920
H          4.36600       -1.43975       -1.30652
H          2.83049       -2.05403       -0.66056
H          5.14715       -2.25294        1.03705
H          3.64963       -1.70228        1.81832
H          5.59952       -0.07918        0.04209
H          5.85613        1.69570        1.33528
H          4.42462        1.42019        2.32692
H          4.62519        2.97274       -0.18438
H          3.17837        2.71019        0.81884
