18

C          2.75033       -2.61059        0.62338
O          2.44975       -2.13978       -0.68700
C          2.95442       -0.83016       -0.91237
C          4.47763       -0.73928       -0.96373
O          5.10772        0.03791       -0.25001
C          5.16408       -1.64563       -1.93378
C          6.50215       -1.70493       -1.98919
C          7.25734       -2.59320       -2.92271
H          2.27354       -3.58599        0.75399
H          2.35926       -1.92556        1.38183
H          3.82933       -2.73743        0.75050
H          2.57381       -0.14335       -0.14740
H          2.56935       -0.48044       -1.87653
H          4.52849       -2.25509       -2.56562
H          7.10023       -1.08372       -1.32508
H          6.59293       -3.18418       -3.55890
H          7.88798       -3.28176       -2.35228
H          7.90311       -1.98926       -3.56786
