20

C          1.84195        1.36503       -0.24154
C          2.44273        0.02109        0.14246
C          3.04930       -0.70091       -1.03603
C          4.20026       -0.02863       -1.72392
O          3.29964       -2.09259       -0.77268
C          2.24797       -1.80916       -1.71130
C          2.50909       -2.31439       -3.08951
O          2.70427       -3.72282       -3.04680
H          1.47830        1.88495        0.65014
H          1.00096        1.23530       -0.92986
H          2.57871        2.01280       -0.72762
H          1.66099       -0.59105        0.60741
H          3.21578        0.17460        0.90529
H          4.83491        0.48853       -0.99687
H          3.83354        0.70853       -2.44561
H          4.83895       -0.73996       -2.25729
H          1.23546       -2.01564       -1.38827
H          3.38857       -1.86494       -3.55622
H          1.64967       -2.11001       -3.73436
H          3.38930       -3.87439       -2.36894
