22

C          1.06627        0.06225        0.04915
C          2.57049        0.07003        0.00923
C          3.21945        0.37397       -1.31161
C          3.27667       -0.15276        1.13664
C          4.78021       -0.16028        1.24654
C          5.28381       -1.17351        2.28275
C          6.78717       -1.18043        2.35158
C          7.49143       -0.84261        3.43968
H          0.62952        0.29239       -0.92778
H          0.69701        0.81320        0.75568
H          0.69426       -0.92241        0.35028
H          2.48128        0.59985       -2.08732
H          3.80766       -0.48073       -1.66037
H          3.87252        1.24919       -1.22582
H          2.73151       -0.32663        2.06398
H          5.10735        0.84567        1.53575
H          5.23808       -0.38657        0.27669
H          4.94330       -2.18321        2.02060
H          4.85486       -0.94162        3.26642
H          7.31792       -1.48334        1.45349
H          7.00793       -0.53371        4.36235
H          8.57665       -0.86506        3.42681
