16

C         -1.45682       -1.15187       -0.35716
C         -1.01270       -0.19166        0.78972
O         -0.90335        1.13610        0.21511
C          0.05965        0.85379       -0.82763
C          1.46429        1.06223       -0.24135
O          1.56204        0.01618        0.75978
C          0.42200       -0.86218        0.55840
C         -0.07385       -0.68546       -0.91156
H         -2.32995       -0.83420       -0.93271
H         -1.54671       -2.21294       -0.10329
H         -1.49575       -0.24605        1.76388
H         -0.17302        1.40195       -1.74219
H          1.57768        2.03051        0.25241
H          2.25098        0.90015       -0.98316
H          0.57893       -1.87573        0.93777
H          0.42585       -1.25226       -1.69503
