20

C          2.88585        0.42617        1.42537
O          2.14718        0.21625        0.22596
C          2.84744        0.63004       -0.97538
C          4.02348       -0.23772       -1.34509
O          3.64114       -1.60956       -1.29980
C          1.93852        1.12849       -2.07648
C          2.77961        2.10848       -1.30250
C          3.90636        2.82577       -1.96200
H          2.17990        0.50792        2.25578
H          3.48074        1.34345        1.37748
H          3.53941       -0.43230        1.60226
H          4.84264       -0.08911       -0.63484
H          4.40021       -0.02837       -2.34991
H          2.98490       -1.67890       -0.58168
H          0.86973        1.12126       -1.89412
H          2.20399        0.90540       -3.10318
H          2.26776        2.75133       -0.59415
H          4.32222        2.27128       -2.80866
H          4.70951        3.00570       -1.24064
H          3.56416        3.79599       -2.33660
