13

N         -2.08892        0.04531       -0.00042
C         -1.19870        1.12169        0.00069
C          0.02368        0.55993       -0.00003
N          1.24572        1.10303        0.00045
N          2.15607        0.06326       -0.00078
C          1.36136       -1.07067       -0.00195
C         -0.05900       -0.79660       -0.00152
C         -1.36241       -1.15263       -0.00180
H         -3.09772        0.14431       -0.00024
H         -1.51266        2.15300        0.00187
H          1.54111        2.07115        0.00148
H          1.85009       -2.03596       -0.00306
H         -1.87443       -2.10481       -0.00281
