14

C          1.08801       -0.26792       -0.08221
C          2.44707       -0.85070        0.25697
C          3.21011        0.17881        0.62806
O          4.47391        0.40276        1.07886
C          4.53974        1.80011        1.29131
C          3.40586        2.46414        0.98209
C          2.52389        1.43036        0.55064
C          1.28135        1.23049        0.11668
H          0.79859       -0.50107       -1.11044
H          0.32863       -0.64401        0.61087
H          2.72881       -1.88907        0.22571
H          5.47476        2.15874        1.68032
H          3.20002        3.51672        1.06479
H          0.52492        1.98257       -0.05199
