16

N          0.84765        0.00420        0.22487
N          2.25170       -0.03968        0.17506
C          3.07034        1.08007        0.16060
C          4.31949        0.57155        0.12888
C          5.78210        0.63801        0.11947
C          5.73940       -0.92531        0.11325
C          4.28057       -0.78789        0.12344
C          2.99859       -1.20892        0.14732
H          0.48780        0.81864       -0.26608
H          0.43687       -0.80053       -0.24178
H          2.66704        2.08125        0.19364
H          6.20306        1.15120        0.99120
H          6.19437        1.15303       -0.75522
H          6.13392       -1.46591        0.98120
H          6.12640       -1.45574       -0.76422
H          2.53144       -2.18165        0.16909
