18

C          0.94320       -0.07949       -0.02135
C          2.46320       -0.07949       -0.02135
C          3.76706       -0.07949       -0.02135
C          5.28706       -0.07949       -0.02135
C          5.87027        1.02425        0.85379
C          5.45325        0.92279        2.29130
C          5.81406       -0.25784        3.15701
O          6.54114        0.97644        3.22628
H          0.57022        0.44909        0.86033
H          0.57004       -1.10725       -0.00435
H          0.57003        0.41978       -0.91985
H          5.63440        0.05068       -1.05265
H          5.63268       -1.06283        0.31691
H          5.56323        2.00457        0.47203
H          6.96463        0.98818        0.77635
H          4.55604        1.48241        2.52129
H          6.30753       -1.11163        2.71094
H          5.15988       -0.49922        3.98623
