20

C          0.98832       -0.09577       -0.10476
C          2.47720        0.08701       -0.07801
C          3.39396       -0.59590       -1.15094
C          4.45947       -0.26233       -0.06886
O          5.72983       -0.90668       -0.08416
C          3.36531       -0.70370        0.94355
C          4.50519        1.25896        0.01168
C          2.99464        1.53339        0.00253
H          0.72042       -1.15585       -0.16131
H          0.54525        0.40624       -0.97091
H          0.52503        0.31665        0.79743
H          3.48649       -0.07683       -2.11006
H          3.21447       -1.66044       -1.34091
H          5.53682       -1.85841       -0.13129
H          3.43072       -0.28630        1.95314
H          3.18209       -1.78191        1.01790
H          5.00639        1.71049       -0.85017
H          4.97809        1.61642        0.93177
H          2.69644        2.12990       -0.86580
H          2.66921        2.04115        0.91624
