18

C          1.07324        0.00516        0.06789
C          2.59324        0.00516        0.06789
C          3.89709        0.00516        0.06789
C          5.41709        0.00516        0.06789
C          5.98364        1.14293        0.89774
C          7.33990        0.59834        1.26538
C          7.04336       -0.87158        1.47902
O          5.92816       -1.20729        0.64036
H          0.70014       -0.25770        1.06165
H          0.70008       -0.72401       -0.65661
H          0.70011        0.99720       -0.20130
H          5.77842        0.05978       -0.96594
H          5.39202        1.30454        1.80813
H          6.02616        2.08915        0.35111
H          7.78355        1.07709        2.14186
H          8.02985        0.72322        0.42205
H          6.75348       -1.06998        2.51503
H          7.89655       -1.50721        1.22740
