16

C          0.94234        0.06782       -0.04557
C          2.46234        0.06782       -0.04557
C          3.76620        0.06782       -0.04557
C          5.28620        0.06782       -0.04557
O          5.75975        0.19374       -1.37643
C          5.68902        1.22757        0.80947
C          7.14796        1.59288        0.92742
O          6.24037        2.36437        0.12537
H          0.56923        0.54789       -0.95450
H          0.56927        0.61499        0.82463
H          0.56918       -0.95935       -0.00683
H          5.65424       -0.87327        0.37461
H          5.59353        1.12424       -1.61908
H          5.06470        1.39135        1.67943
H          7.88088        0.98078        0.41483
H          7.49434        2.03015        1.85647
