17

N          2.24756       -1.61773       -1.66799
C          2.97783       -0.89268       -0.93926
C          3.85811       -0.01868       -0.06083
C          4.37974       -0.80614        1.10398
C          5.68229       -1.01661        1.35574
C          6.21302       -1.77197        2.49377
C          5.85462       -3.22779        2.63957
C          7.24527       -2.83720        2.23278
H          3.26580        0.82543        0.30880
H          4.67226        0.38897       -0.67034
H          3.63812       -1.22220        1.78446
H          6.42636       -0.59428        0.68168
H          6.32468       -1.19278        3.40603
H          5.22254       -3.69424        1.89179
H          5.70501       -3.61207        3.64206
H          7.54712       -3.04396        1.21205
H          8.03927       -2.96327        2.96021
