20

C          0.91732       -0.51699        0.03636
C          2.37811       -0.33542       -0.33598
O          2.56722        1.06874       -0.46444
C          3.72034        1.45378       -1.08140
C          3.70815        2.55124       -1.83839
C          4.86863        3.24840       -2.45522
O          4.76488        4.60621       -2.03030
C          5.69486        5.45572       -2.67868
H          0.67455       -1.56351        0.22864
H          0.27503       -0.14552       -0.77094
H          0.67169        0.07885        0.92321
H          2.59080       -0.85197       -1.27958
H          3.02695       -0.73028        0.45357
H          4.60008        0.87510       -0.83000
H          2.74942        3.04424       -1.98519
H          5.82736        2.82897       -2.13340
H          4.79259        3.19024       -3.54651
H          5.53801        6.47243       -2.30659
H          5.53541        5.45015       -3.76120
H          6.71771        5.15097       -2.44311
