20

C          1.00556       -0.05988        0.01445
C          2.52112        0.02826       -0.09237
C          3.02292        1.11058       -1.07337
C          2.53563        2.52078       -0.70886
O          3.10959        2.95282        0.51581
C          4.55957        1.03620       -1.12663
C          5.14449        2.03223       -2.09297
O          5.37162        1.77067       -3.26994
H          0.72403       -0.92162        0.62849
H          0.54689       -0.18162       -0.97153
H          0.58280        0.82990        0.48975
H          2.89415       -0.94901       -0.42428
H          2.93954        0.19536        0.90751
H          2.62857        0.87641       -2.07136
H          1.44564        2.57743       -0.63353
H          2.82732        3.23988       -1.48136
H          2.68681        2.44754        1.23234
H          4.87886        0.03706       -1.44609
H          5.01140        1.21541       -0.14440
H          5.30718        3.04879       -1.69465
