18

C          0.94479        0.03200        0.00639
C          2.45550       -0.01332        0.09990
C          3.05319        1.11972        0.89759
O          4.32847        0.60881        1.27992
C          4.10565       -0.79715        1.44446
O          2.87417       -1.17686        0.81746
C          5.27965       -1.53244        0.86965
C          5.25804       -2.45905       -0.09938
H          0.60267        0.94531       -0.48846
H          0.48785       -0.02280        1.00100
H          0.57364       -0.83269       -0.55394
H          2.90047       -0.05974       -0.90146
H          2.48665        1.33291        1.81126
H          3.16489        2.04296        0.32150
H          4.02274       -1.01508        2.51487
H          6.23737       -1.27164        1.31460
H          4.32998       -2.76018       -0.57574
H          6.17394       -2.93623       -0.43302
