18

C          2.84846        1.21255        0.27487
C          2.33389        0.05097       -0.14505
C          3.02447       -0.73186       -1.20470
C          3.11550       -0.14114       -2.66299
C          1.60039       -0.53014       -2.77287
C          2.18528       -1.78770       -2.03256
O          3.11107       -2.40983       -2.96498
C          3.82239       -1.25839       -3.45807
H          2.35770        1.78459        1.05686
H          3.76438        1.62124       -0.14141
H          1.42389       -0.34451        0.29759
H          3.97105       -1.13358       -0.81875
H          3.41383        0.89465       -2.81553
H          1.22210       -0.70504       -3.78494
H          0.87515        0.08796       -2.23569
H          1.51405       -2.47931       -1.52454
H          3.67509       -1.16339       -4.53757
H          4.88473       -1.34198       -3.21284
