17

N          2.67368        1.42924        0.05628
C          2.30768       -0.00018        0.02390
C          2.91694       -0.79541       -1.15264
C          2.41027       -0.24867       -2.47731
C          1.97565        0.22032       -3.61362
C          4.45342       -0.85822       -1.13392
N          5.17102       -0.19250       -0.18411
N          5.11936       -1.54232       -2.01299
H          2.13900        1.88661        0.79627
H          2.35929        1.86652       -0.81393
H          1.21414       -0.07110       -0.01693
H          2.62422       -0.44930        0.97220
H          2.56802       -1.83388       -1.07318
H          1.62817        0.60191       -4.54640
H          4.73929        0.67871        0.12911
H          6.14335       -0.08785       -0.44968
H          4.47448       -1.98047       -2.68064
