22

C          1.08283       -0.02574        0.06433
C          2.62522        0.01289        0.01443
C          3.07409       -0.64434       -1.30372
C          3.10367        1.48146        0.07488
O          2.56066        2.26665       -0.97861
C          3.16304       -0.78360        1.23307
C          4.68286       -0.87463        1.35259
O          5.02349       -1.65025        2.49564
H          0.63625        0.49944       -0.78709
H          0.70645        0.44403        0.98012
H          0.71325       -1.05746        0.04355
H          2.57599       -0.19254       -2.16889
H          2.83313       -1.71342       -1.31245
H          4.15288       -0.54114       -1.45830
H          4.19417        1.55737        0.01349
H          2.79481        1.94392        1.01827
H          2.98732        1.99051       -1.80750
H          2.75951       -1.80556        1.21251
H          2.76850       -0.34521        2.16023
H          5.14586        0.10920        1.46559
H          5.12268       -1.36731        0.48185
H          4.67184       -1.19366        3.27909
