20

C          0.96479        0.01587        0.17221
C          2.48542        0.04770        0.04309
C          2.91366        0.10081       -1.42565
C          3.16842        1.13500        0.92234
C          4.23300        0.09143        1.30682
C          3.21675       -1.01782        0.93581
C          3.74949       -2.29900        0.25911
O          3.06840       -3.24606       -0.13501
H          0.51163        0.88113       -0.32361
H          0.64760        0.03212        1.22094
H          0.55454       -0.89095       -0.28458
H          2.50975        0.99375       -1.91522
H          2.54707       -0.77500       -1.97179
H          4.00302        0.12999       -1.53470
H          2.56955        1.47170        1.77730
H          3.54791        2.01762        0.39935
H          4.54542        0.10991        2.35488
H          5.12775        0.11896        0.67443
H          2.61830       -1.29654        1.81752
H          4.84518       -2.33790        0.13716
