22

C          0.91242       -0.24513        0.47245
C          2.43036       -0.28655        0.25033
C          3.11517        0.64332        1.26494
C          2.93802       -1.72161        0.45596
C          2.82449        0.16709       -1.16638
C          2.33323        1.49092       -1.78672
C          2.10182        0.62751       -3.02956
O          2.12315       -0.57611       -2.21443
H          0.65382       -0.61997        1.47169
H          0.37950       -0.86123       -0.25826
H          0.51705        0.77249        0.39747
H          2.90465        0.33147        2.29482
H          2.77371        1.67823        1.15167
H          4.20241        0.64382        1.13048
H          2.68471       -2.09612        1.45397
H          4.02605       -1.77470        0.34372
H          2.50178       -2.40617       -0.28057
H          3.90882        0.04050       -1.30765
H          1.41808        1.91462       -1.36613
H          3.08993        2.27093       -1.89183
H          2.91756        0.61713       -3.76086
H          1.14449        0.77152       -3.53568
