20

C          1.00998       -0.11283       -0.12670
C          2.53072       -0.09916       -0.06374
C          3.06194        0.73815        1.10317
C          4.56696        0.74102        1.17646
C          5.04344        1.94258        1.52259
C          3.94292        2.93957        1.72338
C          2.74815        2.25260        1.04416
O          2.63912        2.72798       -0.30160
H          0.67395       -0.73879       -0.95935
H          0.60289        0.89112       -0.27787
H          0.58499       -0.52063        0.79595
H          2.93165        0.25762       -1.02021
H          2.88143       -1.13352        0.04580
H          2.68995        0.32232        2.04939
H          5.17731       -0.14055        1.02984
H          6.08906        2.16783        1.68452
H          4.18854        3.89756        1.25540
H          3.77186        3.08377        2.79501
H          1.80658        2.49144        1.54861
H          3.48786        2.53615       -0.73945
