16

C          0.97324       -0.08067        0.13829
C          2.27466        0.10331       -0.11733
C          3.13787        1.13277        0.46725
O          4.26236        1.65133       -0.26251
C          3.13534        2.52750       -0.11943
C          3.44566        3.73398        0.70715
C          2.26029        4.62897        0.95172
O          1.12593        4.41739        0.53375
H          0.42177       -0.88126       -0.34321
H          0.43328        0.56280        0.82577
H          2.75917       -0.57439       -0.81836
H          3.27095        1.03118        1.53979
H          2.55622        2.74150       -1.00878
H          4.20511        4.33628        0.19817
H          3.84438        3.44864        1.68647
H          2.47366        5.52977        1.55218
