18

C          1.14158        0.02064       -0.18518
C          2.47906        0.01188       -0.05038
C          3.24415       -1.26454        0.21607
C          4.20535       -1.15565        1.40388
O          5.29466       -0.30093        1.05943
C          5.07723        1.05706        1.42473
O          3.77998        1.57164        1.16259
C          3.30621        1.26829       -0.14206
H          0.55502       -0.88949       -0.10656
H          0.59602        0.94313       -0.35856
H          3.81486       -1.50894       -0.68929
H          2.55165       -2.09465        0.39876
H          4.63185       -2.14592        1.59671
H          3.70622       -0.82936        2.32464
H          5.81741        1.67172        0.90184
H          5.26838        1.16343        2.49792
H          4.12142        1.17051       -0.86944
H          2.68904        2.11322       -0.46691
