18

N          2.17227       -1.23344        0.40333
C          2.37421        0.04411       -0.02741
N          1.94023        1.02560        0.69631
C          3.08459        0.35347       -1.29078
C          3.57314       -0.54318       -2.15760
C          4.22938        0.12727       -3.31948
C          3.74168        1.56995       -3.19946
C          3.33260        1.75859       -1.73837
H          2.03235       -1.34891        1.39787
H          2.79949       -1.93030        0.02097
H          1.44437        0.65511        1.50761
H          3.52344       -1.61640       -2.05904
H          3.92177       -0.31485       -4.27106
H          5.31860        0.05976       -3.23057
H          2.86880        1.71871       -3.84897
H          4.50343        2.29104       -3.51282
H          2.44471        2.39374       -1.66564
H          4.14390        2.20880       -1.15610
