16

C          1.10663       -0.07740       -0.00808
C          2.61311       -0.07075       -0.01690
C          3.28243        0.81069       -0.77805
C          3.34149       -1.03733        0.80071
C          2.76840       -1.94483        1.60894
C          3.45483       -2.96647        2.42110
O          4.73857       -2.70377        2.72304
O          2.86716       -3.95931        2.82146
H          0.68727        0.68844       -0.66935
H          0.72365        0.11858        0.99934
H          0.72309       -1.04534       -0.35078
H          2.75718        1.53310       -1.39794
H          4.36707        0.84782       -0.81818
H          4.42379       -1.00313        0.69647
H          1.68905       -2.03506        1.67982
H          5.03697       -1.80767        2.49099
