13

N          1.19937       -0.10377        0.23958
C          2.45032       -0.10451       -0.05969
N          3.21843       -1.17942       -0.42098
C          4.46991       -0.78780       -0.78448
C          4.59516        0.54049       -0.64568
C          3.31454        1.16237       -0.09183
C          3.56455        1.65035        1.32583
N          3.77194        2.05517        2.50190
H          0.83003       -1.05839        0.19234
H          2.90547       -2.13665       -0.48782
H          5.20811       -1.50499       -1.11853
H          5.49123        1.10500       -0.85953
H          2.89026        1.92396       -0.74875
