18

O          0.94479       -0.19203        0.01479
C          2.34551        0.01875        0.16776
C          2.76220        1.21126       -0.67353
C          2.22347        2.59340       -0.27861
C          3.69240        3.03456       -0.38050
O          4.12123        1.63957       -0.36442
C          4.06445        3.76168       -1.62172
C          3.88642        5.08404       -1.73059
H          0.71836       -0.97153        0.55105
H          2.86928       -0.88352       -0.16263
H          2.55858        0.18132        1.22996
H          2.67431        0.99956       -1.74891
H          1.80928        2.66015        0.73264
H          1.51879        3.03608       -0.98799
H          4.05135        3.54812        0.52031
H          4.49051        3.18928       -2.43976
H          3.46856        5.67931       -0.92534
H          4.16517        5.60142       -2.64372
