21

C          1.80032        0.01642        0.98708
C          2.26876       -0.01848       -0.44096
C          0.78766       -0.00505       -0.13757
C          0.00202        1.25477       -0.43384
C         -1.36117        1.21741        0.26854
N         -2.12965        0.00906       -0.06772
C         -1.37345       -1.19486        0.31026
C         -0.00731       -1.26981       -0.38327
H          1.94233        0.93604        1.54434
H          1.93266       -0.87748        1.58688
H          2.71745       -0.93700       -0.80356
H          2.72483        0.87791       -0.84693
H         -0.14256        1.33695       -1.51850
H          0.55077        2.14904       -0.11552
H         -1.94411        2.09791       -0.02241
H         -1.22777        1.27200        1.35606
H         -2.28110       -0.00748       -1.07652
H         -1.96391       -2.07860        0.04523
H         -1.24575       -1.21564        1.39958
H         -0.14816       -1.39586       -1.46419
H          0.53354       -2.15408       -0.02586
