24

C          1.06831       -0.03297       -0.02988
C          2.59897       -0.06890       -0.01556
C          3.10003       -1.01070       -1.11214
C          3.15611        1.35999       -0.16100
C          4.68542        1.43202       -0.10787
C          5.17947        2.87657       -0.21319
C          6.68019        2.93748       -0.19209
C          7.39198        3.59586        0.73097
H          0.65323       -1.03768        0.10536
H          0.68954        0.36368       -0.97841
H          0.68488        0.59724        0.77902
H          2.91726       -0.47347        0.95381
H          2.88958       -0.60719       -2.10829
H          2.61748       -1.99101       -1.03475
H          4.17826       -1.17831       -1.03114
H          2.74582        1.98132        0.64748
H          2.80446        1.79903       -1.10279
H          5.11599        0.85009       -0.93081
H          5.04108        0.98271        0.82791
H          4.75343        3.47513        0.60107
H          4.82901        3.31986       -1.15318
H          7.20573        2.41396       -0.98855
H          6.91443        4.13773        1.54159
H          8.47670        3.60581        0.69167
