16

O          2.50200       -1.34367        0.10821
C          2.28658        0.06221        0.01904
C          2.77511        0.58885       -1.33426
C          2.45725        2.07115       -1.48484
C          3.58883        2.76149       -1.70668
C          4.78529        1.90866       -1.77391
O          4.88265        0.82909       -2.71453
C          4.29326        0.51406       -1.44865
H          2.17010       -1.62909        0.97687
H          2.81396        0.54324        0.85067
H          1.21247        0.24304        0.13583
H          2.32320        0.01465       -2.15170
H          1.46362        2.49141       -1.43524
H          3.63510        3.83127       -1.86247
H          5.68668        2.26613       -1.29332
H          4.82017       -0.12970       -0.76387
