16

C          0.92768        0.25555        0.02464
N          2.38170        0.15097        0.07436
N          3.01924        0.45346       -1.08396
C          4.30801        0.37805       -1.06537
C          5.13003        0.65472       -2.26219
C          6.39767        0.48385       -1.87577
C          6.46085        0.11061       -0.49351
C          5.23792        0.03430        0.03622
H          0.50272       -0.01400        0.99546
H          0.51302       -0.41790       -0.73205
H          0.61922        1.28071       -0.20588
H          2.62898       -0.78691        0.39669
H          4.73533        0.93430       -3.22099
H          7.26563        0.61125       -2.50545
H          7.38486       -0.06864        0.03561
H          4.95109       -0.20403        1.04332
