16

O          1.09701        0.00802        0.56090
C          2.26297        0.00665        0.18890
C          3.10403       -1.23987        0.05982
C          4.24569       -0.79262       -0.85300
C          4.31314        0.69714       -0.71508
C          5.27875        1.54154       -1.50917
O          5.52466        1.19604       -0.13822
C          3.05631        1.25237       -0.12783
H          2.53654       -2.06681       -0.37230
H          3.47566       -1.50766        1.05346
H          4.01297       -1.04996       -1.89283
H          5.18192       -1.29255       -0.58442
H          5.01576        2.56904       -1.72785
H          5.88908        1.06280       -2.26517
H          2.51064        1.86306       -0.84996
H          3.24087        1.80567        0.79785
