18

C          1.16971       -0.07783        0.03170
C          2.65772       -0.10208       -0.08131
C          3.30496        0.11596       -1.23143
O          4.67401        0.09986       -1.30959
C          5.33083        0.27579       -2.52042
C          4.86836       -0.14374       -3.71091
C          6.67558        0.94009       -2.37638
O          7.51289        0.17221       -1.52014
H          0.87098       -0.22140        1.07407
H          0.72347       -0.88369       -0.55947
H          0.76684        0.88306       -0.30298
H          3.22732       -0.30304        0.82284
H          2.78565        0.33649       -2.15342
H          3.92638       -0.66921       -3.81765
H          5.44431        0.00720       -4.61906
H          6.55865        1.93728       -1.94069
H          7.18729        1.04969       -3.33773
H          6.96869       -0.06107       -0.74717
