22

C          1.00706       -0.11709       -0.10620
C          2.53988       -0.06209       -0.01526
C          3.05405        1.19294       -0.73519
C          2.95387        0.00307        1.46533
C          3.10731       -1.35477       -0.62801
C          2.92922       -1.66962       -2.12581
C          4.42535       -1.97227       -2.08542
O          4.55499       -1.31035       -0.80018
H          0.54946        0.76962        0.34626
H          0.61238       -1.00011        0.40936
H          0.67134       -0.17171       -1.14822
H          2.65513        2.10160       -0.27021
H          2.75760        1.20803       -1.78838
H          4.14695        1.25841       -0.69993
H          2.51194        0.87371        1.96308
H          4.04180        0.07180        1.57125
H          2.62942       -0.89240        2.00835
H          2.84736       -2.22452       -0.00462
H          2.66065       -0.82928       -2.76998
H          2.28382       -2.52310       -2.34814
H          5.02287       -1.48803       -2.86158
H          4.69032       -3.03109       -2.01107
