18

C         -1.52401        0.14684        0.86133
C         -1.03957        1.38631        0.07462
C          0.19053        0.92670       -0.72943
O          1.37324        1.00282        0.08733
C          1.52166       -0.23751        0.81592
C          0.60752       -1.23130        0.17763
C         -0.90426       -1.03461        0.16571
C         -0.05078       -0.52745       -0.93685
H         -2.61733        0.08850        0.84234
H         -1.20494        0.19102        1.90780
H         -0.81807        2.21966        0.74808
H         -1.83350        1.69585       -0.61609
H          0.33704        1.50530       -1.64520
H          1.27004       -0.06120        1.86658
H          2.56894       -0.54631        0.74926
H          1.02570       -2.21349        0.02797
H         -1.55290       -1.88210        0.01181
H         -0.07416       -0.91808       -1.93529
