17

N          1.17496       -0.27114       -0.27278
N          2.51291       -0.08827       -0.21298
C          2.95941        1.00382       -0.74512
C          2.24004        2.12085       -1.42020
C          3.17365        3.28170       -1.09877
N          4.55010        2.74351       -1.07139
C          4.98267        2.27375        0.24223
C          4.40113        1.29908       -0.73204
H          0.92199       -1.10737        0.26069
H          0.65497        0.49781        0.15460
H          1.23237        2.28662       -1.03744
H          2.20558        1.91742       -2.49591
H          2.90394        3.73869       -0.13731
H          3.08722        4.06450       -1.85857
H          4.41049        2.54694        1.11931
H          6.05657        2.24673        0.39741
H          5.05821        0.63177       -1.26970
