16

C          1.09174       -0.03859       -0.00971
C          2.39560       -0.03859       -0.00971
C          3.91560       -0.03859       -0.00971
C          4.57829        1.10241        0.21224
O          5.93965        1.22753        0.31106
C          6.70091        0.12049       -0.17997
C          6.11947       -1.24877        0.14374
C          4.62671       -1.34946       -0.15521
H          0.02666       -0.03678       -0.00908
H          4.09703        2.05348        0.39686
H          7.70243        0.19766        0.26279
H          6.81764        0.24107       -1.26784
H          6.27088       -1.45043        1.21335
H          6.66327       -2.02675       -0.39871
H          4.18384       -2.09163        0.51799
H          4.47899       -1.72236       -1.17967
