20

C          0.77469        1.19016       -1.56455
C          2.27928        1.37561       -1.64241
C          2.94795        1.37371       -0.27521
O          2.28928        1.19392        0.75539
C          4.48627        1.60545       -0.27257
C          5.01752        2.82540        0.52677
C          6.23317        1.96308        0.91432
C          5.34716        0.72601        0.67447
H          0.33659        1.20242       -2.56719
H          0.30993        1.98980       -0.97824
H          0.51982        0.23604       -1.09152
H          2.50385        2.33173       -2.12674
H          2.71876        0.56780       -2.23668
H          4.89350        1.59501       -1.29495
H          4.39174        3.11505        1.37894
H          5.24375        3.71610       -0.06542
H          6.60294        2.09355        1.93427
H          7.07298        2.04602        0.21506
H          4.82497        0.37813        1.57325
H          5.84830       -0.12482        0.20519
