20

C          1.05237        0.05465        0.11123
C          2.56302        0.05038        0.10784
O          3.17922        0.96410        0.66442
C          3.29958       -1.11780       -0.57346
C          2.91935       -2.43908        0.10896
C          2.92784       -1.16745       -2.06161
C          4.82265       -0.88817       -0.46215
O          5.25632       -0.86287        0.89442
H          0.69610        0.95788        0.61629
H          0.67145       -0.81121        0.65638
H          0.66724        0.06461       -0.90988
H          1.85946       -2.67691       -0.03331
H          3.09994       -2.40048        1.18894
H          3.49686       -3.27493       -0.30209
H          1.86786       -1.39970       -2.20918
H          3.50516       -1.93593       -2.58806
H          3.12317       -0.20528       -2.54882
H          5.12681        0.05334       -0.93487
H          5.37053       -1.69598       -0.96011
H          4.87770       -0.04357        1.27788
