17

N          1.39312        0.16484       -0.57145
C          2.48539        0.06584        0.11791
N          2.84447       -1.16631        0.58576
C          3.93236       -1.37507        1.51877
C          5.09607       -0.46142        1.19777
C          4.63692        0.93072        0.91520
C          3.54208        1.61279        1.69110
N          3.31810        1.14574        0.31827
H          0.93042       -0.74519       -0.55126
H          2.76199       -1.88682       -0.12303
H          4.24556       -2.42595        1.50223
H          3.55934       -1.17960        2.53527
H          5.62110       -0.84093        0.31322
H          5.81367       -0.46197        2.02578
H          5.40754        1.54758        0.47260
H          3.54216        2.69324        1.75176
H          2.96055        1.09538        2.43849
