16

C         -0.62434        1.29131        1.06719
O          0.68365        1.72502        0.60029
C          0.68549        0.63646       -0.38073
C          1.57485       -0.50709        0.08804
C          0.77132       -1.73877        0.36309
C         -0.55874       -1.82696        0.26233
O         -1.42276       -0.83391       -0.10080
C         -0.83695        0.47809       -0.21521
H         -1.30784        2.13265        1.20645
H         -0.54351        0.72196        1.99848
H          0.97673        1.01378       -1.36861
H          2.12332       -0.23118        0.99719
H          2.32282       -0.73341       -0.67926
H          1.32828       -2.61945        0.66810
H         -1.10333       -2.74411        0.45649
H         -1.39277        1.05434       -0.96597
