15

N          1.07224        0.05367        0.04359
C          2.33321        0.05367        0.04359
C          3.85321        0.05367        0.04359
C          4.62309        1.14252        0.21596
C          6.03425        0.81941        0.49139
C          6.88795        0.09283       -0.50607
C          6.07822       -0.70291        0.48190
C          4.68006       -1.20138        0.16011
H          4.24818        2.15770        0.26767
H          6.50567        1.33948        1.31772
H          7.96302        0.12226       -0.36176
H          6.59101        0.09096       -1.54967
H          6.56884       -1.22065        1.29455
H          4.30841       -1.83909        0.96867
H          4.67650       -1.76670       -0.77716
