20

O          2.77902       -0.60423        1.40640
C          2.45220       -0.05633        0.13304
C          2.99366       -0.96081       -0.97182
C          4.49695       -0.97157       -1.00126
C          5.21168       -1.76182       -2.06638
C          5.26462       -0.25283       -2.08891
C          6.52154        0.48079       -1.75864
O          7.51501        0.16672       -2.72231
H          2.44873        0.01618        2.07836
H          2.87524        0.95136        0.06448
H          1.36253        0.00684        0.06443
H          2.59573       -0.62755       -1.93726
H          2.64652       -1.98659       -0.80278
H          4.92180       -1.03341       -0.00366
H          4.62162       -2.25713       -2.82979
H          6.09055       -2.31976       -1.76346
H          4.71852        0.24212       -2.88554
H          6.90570        0.22955       -0.76458
H          6.34585        1.56044       -1.79083
H          7.68133       -0.78792       -2.64668
