14

O          1.64024       -0.32814       -0.95952
C          2.50785        0.03216       -0.16904
C          3.21333        1.37653       -0.26995
C          3.59350        1.94496        1.07135
C          3.80035        1.16123        2.14079
C          3.69585       -0.30226        2.09659
O          4.34251       -1.07354        1.06584
C          2.92577       -0.87897        0.92864
H          2.52833        2.07313       -0.76770
H          4.10358        1.26258       -0.89657
H          3.70901        3.02235        1.15028
H          4.07699        1.61450        3.09083
H          3.58029       -0.78228        3.05974
H          2.28802       -1.73600        1.10576
