18

C          0.85727       -0.00929       -0.03259
C          2.36171        0.02859       -0.03005
C          3.02055        1.19406        0.01033
C          4.49016        1.26439        0.00406
O          5.02552        2.37122        0.05758
C          5.30691        0.00423       -0.10346
C          4.56396       -1.32337       -0.03408
C          3.03737       -1.30725       -0.08483
H          0.41927        0.99534       -0.01475
H          0.49098       -0.54806        0.84634
H          0.49097       -0.51503       -0.93154
H          2.50896        2.15031        0.04977
H          6.04658        0.03111        0.70564
H          5.85900        0.05875       -1.04912
H          4.87417       -1.84508        0.88125
H          4.93197       -1.96752       -0.84486
H          2.66721       -1.91622        0.75101
H          2.71483       -1.82319       -0.99802
