18

C          0.85894       -0.01334       -0.05487
O          2.27983        0.02345       -0.05422
C          2.76880        1.36449       -0.03193
C          4.29239        1.33769       -0.03275
O          4.79972        2.67131       -0.01002
C          6.22363        2.67064       -0.01034
C          6.73029        4.10348        0.01549
C          7.16491        5.33257        0.03765
H          0.54200       -1.05971       -0.07190
H          0.46325        0.48612       -0.94440
H          0.46317        0.45693        0.85028
H          2.40561        1.88338        0.86303
H          2.40536        1.91276       -0.90935
H          4.65165        0.81420       -0.92721
H          4.65194        0.78393        0.84317
H          6.59856        2.17705       -0.91387
H          6.59906        2.14474        0.87457
H          7.51234        6.33955        0.05580
