14

C          5.85306       -1.46102        1.38201
C          4.89922       -0.80416        0.78303
C          3.78726       -0.03841        0.08477
C          4.45205        0.74398       -0.98913
O          3.53323        1.49281       -1.80641
C          4.41056        2.25031       -0.96376
C          5.40489        2.98196       -1.67900
C          6.25136        3.60020       -2.26056
H          6.63266       -1.99865        1.87112
H          3.26561        0.59677        0.80796
H          3.07006       -0.74938       -0.33810
H          5.22936        0.21413       -1.52413
H          3.96088        2.74392       -0.11058
H          7.00858        4.14936       -2.77275
