16

C          0.96356       -0.16787        0.07334
C          2.30714       -0.10697        0.01440
C          3.00121        0.92048       -0.85145
C          3.89156        1.89733       -0.10136
O          4.05475        1.93660        1.11377
C          3.16810       -1.06727        0.80927
C          4.01904       -1.88095       -0.07218
C          4.73164       -2.55282       -0.76788
H          0.33155        0.51230       -0.48970
H          0.45497       -0.90459        0.68948
H          2.26706        1.53199       -1.39069
H          3.61546        0.42393       -1.60973
H          4.41199        2.62447       -0.74929
H          2.53987       -1.73999        1.40677
H          3.78605       -0.51953        1.52724
H          5.37143       -3.15691       -1.36869
