15

N          5.43387        1.27541        1.68553
C          4.65083        0.68355        0.89396
C          3.70694       -0.02991       -0.06021
C          4.15445       -1.43991       -0.27434
C          3.49744       -2.57553        0.02836
C          4.32428       -3.76735       -0.35909
C          5.54606       -3.11943       -0.93638
C          5.42471       -1.78544       -0.88212
H          3.68349        0.50768       -1.01478
H          2.69477       -0.00089        0.35906
H          2.52328       -2.64392        0.48998
H          3.81096       -4.38021       -1.10558
H          4.57386       -4.37669        0.51455
H          6.39712       -3.65670       -1.32731
H          6.16291       -1.07176       -1.21897
