20

C          0.85938       -0.02097        0.06570
O          2.26849        0.14933        0.07905
C          2.80117        1.11144       -0.83699
C          2.48401        0.77473       -2.29387
C          4.32901        1.15338       -0.61232
C          4.56790        2.25807        0.42005
C          3.37369        3.13405        0.24233
C          2.40725        2.50704       -0.43824
H          0.60308       -0.75385        0.83629
H          0.51584       -0.41474       -0.89407
H          0.34197        0.91240        0.30313
H          2.76998       -0.25800       -2.52226
H          3.00608        1.44174       -2.98905
H          1.41311        0.86530       -2.50554
H          4.85944        1.41812       -1.53694
H          4.73280        0.19746       -0.26015
H          5.50015        2.79222        0.21538
H          4.60061        1.86083        1.43980
H          3.29144        4.12860        0.65757
H          1.43760        2.93579       -0.64824
