18

C          0.74473       -0.01891        0.13108
C          2.23913       -0.00301        0.14889
O          2.79014        0.35995        1.42560
C          3.06709       -0.97965       -0.64681
C          2.55428       -1.73814       -1.81904
O          2.53670       -0.82815       -2.93034
C          2.54066        0.51856       -2.42819
C          3.05278        0.45791       -1.03387
H          0.37111       -0.77016        0.83441
H          0.32481       -0.24720       -0.85208
H          0.35591        0.95666        0.44045
H          2.63755       -0.33748        2.08668
H          3.97386       -1.38837       -0.22544
H          1.54134       -2.12090       -1.65856
H          3.20431       -2.58028       -2.07512
H          1.52536        0.92208       -2.48539
H          3.18803        1.12091       -3.07267
H          3.93882        1.05345       -0.86758
