18

C          0.94181        0.07564       -0.00319
C          2.46734        0.05996       -0.06026
C          2.96822       -0.90132       -1.15060
C          4.49728       -0.99509       -1.19665
C          4.94180       -1.94281       -2.22957
C          5.32108       -2.70122       -3.08007
C          2.97400        1.46721       -0.33111
C          3.40862        2.67434       -0.56344
H          0.55132       -0.91616        0.24566
H          0.50846        0.38009       -0.96303
H          0.58515        0.77992        0.75715
H          2.85292       -0.26143        0.91513
H          2.59273       -0.58378       -2.13326
H          2.55180       -1.90069       -0.96743
H          4.88122       -1.31032       -0.21977
H          4.93712       -0.01503       -1.41270
H          5.66478       -3.36562       -3.83840
H          3.76269        3.66132       -0.75412
