22

C          1.75849        0.86669        0.78727
C          2.60070       -0.06630       -0.06973
C          3.05246       -1.26407        0.71286
C          4.33901       -1.55047        0.96472
C          4.76781       -2.68134        1.76719
C          4.42326       -3.93976        1.44898
C          5.66504       -2.36603        2.94191
C          4.98153       -1.50292        3.99740
H          1.42356        1.72465        0.19562
H          2.33177        1.24669        1.63987
H          0.86982        0.35667        1.17495
H          3.45755        0.48802       -0.47055
H          2.01036       -0.40779       -0.92672
H          2.26931       -1.91208        1.10165
H          5.12836       -0.89049        0.61083
H          3.80458       -4.16042        0.58378
H          4.76195       -4.78644        2.03710
H          6.57001       -1.85931        2.58511
H          6.00147       -3.29331        3.42283
H          4.70665       -0.52075        3.59805
H          5.65668       -1.33836        4.84320
H          4.07356       -1.98404        4.37599
