20

C          1.05418        0.10611       -0.06206
N          2.50850        0.19359        0.01452
N          3.17662       -0.41217       -0.99371
C          4.48058       -0.46298       -0.94260
C          5.31841        0.13902        0.17819
C          5.21430       -1.16415       -2.06879
C          4.40732       -1.79578       -3.16909
C          6.55587       -1.23377       -2.10405
H          0.60670        0.62134        0.79331
H          0.72825       -0.93850       -0.04138
H          0.67868        0.57748       -0.97535
H          2.80096       -0.15121        0.92940
H          4.72617        0.60375        0.96727
H          5.97474        0.91050       -0.23454
H          5.92352       -0.64627        0.64218
H          3.32775       -1.73644       -3.01115
H          4.65877       -2.85855       -3.26185
H          4.62435       -1.30503       -4.12417
H          7.20242       -0.80039       -1.35053
H          7.05972       -1.73952       -2.92335
