18

O          0.88801       -0.14836       -0.10449
C          2.31731       -0.10880        0.00244
C          2.75109       -0.37656        1.45884
C          2.23674        0.65723        2.42743
C          1.46546        0.36521        3.48081
C          2.87867       -1.16170       -0.96595
C          4.39839       -1.18151       -0.94400
C          5.70200       -1.19850       -0.92518
H          0.53261        0.46532        0.56358
H          2.64534        0.89055       -0.30905
H          3.84441       -0.37079        1.53572
H          2.40937       -1.37366        1.76189
H          2.53994        1.68981        2.26077
H          1.15671       -0.65590        3.69403
H          1.13248        1.13939        4.16427
H          2.53232       -0.95379       -1.98523
H          2.49818       -2.15740       -0.70782
H          6.76766       -1.21544       -0.91292
