20

C          0.58148        0.38458       -0.38818
C          2.00119        0.00706       -0.04126
C          3.06473        0.75414       -0.79963
O          2.90050        0.51267       -2.18910
C          2.21359       -0.90979        0.92561
C          3.52879       -1.39686        1.48144
C          3.68415       -2.91497        1.37305
O          3.81707       -3.31705        0.01417
H          0.54395        1.22031       -1.09454
H          0.03697        0.69802        0.50920
H          0.05887       -0.46227       -0.84466
H          4.08439        0.47231       -0.53043
H          2.96534        1.83031       -0.62361
H          3.05038       -0.43860       -2.32298
H          1.33868       -1.35008        1.40614
H          4.37795       -0.91831        0.98871
H          3.56718       -1.11459        2.53996
H          2.83593       -3.44661        1.81734
H          4.59067       -3.23065        1.89976
H          2.98762       -3.07594       -0.43387
