19

N          0.67534        0.05534       -0.08506
C          2.12033        0.10898        0.11868
C          3.06162       -0.87249       -0.52987
C          2.67792       -1.89065       -1.57335
C          3.07357       -1.48749       -2.97009
C          3.07686       -0.19935       -3.34452
C          2.68460        0.89323       -2.37896
C          3.06549        0.58737       -0.95376
H          0.25046       -0.62913        0.53951
H          0.43576       -0.23220       -1.03044
H          2.38624        0.41354        1.12874
H          3.91551       -1.20933        0.04967
H          1.60127       -2.09730       -1.55912
H          3.17176       -2.83781       -1.32996
H          3.36893       -2.26549       -3.66802
H          3.37293        0.08675       -4.34876
H          1.61023        1.08196       -2.47911
H          3.18696        1.82010       -2.67941
H          3.91801        1.18194       -0.64080
