18

C          0.98138        0.33731        0.22845
O          2.37138        0.12233       -0.00579
C          2.73206       -0.94123       -0.80788
C          1.87752       -1.73400       -1.47840
C          4.21329       -1.23047       -0.79805
C          5.19942       -0.20159       -1.34648
C          4.74654        1.13719       -1.86457
O          6.40651       -0.47425       -1.35729
H          0.88149        1.19569        0.89883
H          0.53060       -0.53120        0.72205
H          0.45623        0.57629       -0.70208
H          0.80279       -1.59396       -1.47245
H          2.23413       -2.58726       -2.04910
H          4.41022       -2.14995       -1.36557
H          4.50890       -1.42528        0.24020
H          3.66310        1.24719       -1.88564
H          5.11237        1.25470       -2.88799
H          5.17014        1.92417       -1.23342
