18

C          2.55671       -1.49768       -0.04953
C          2.35714       -0.17077        0.00438
C          3.02718        0.74053        0.99672
C          2.11259        1.43895        1.96863
C          2.69834        2.41713        2.95820
C          1.83371        2.91641        1.83696
C          1.46152        0.42971       -1.01796
O          1.26436        1.63324       -1.11525
H          3.22243       -1.99080        0.65340
H          2.08274       -2.13233       -0.79245
H          3.63267        1.47325        0.44707
H          3.74223        0.15730        1.59274
H          1.31457        0.79898        2.32873
H          3.75957        2.63403        2.91205
H          2.28634        2.43539        3.96085
H          2.30580        3.46279        1.02726
H          0.83728        3.26980        2.07668
H          0.98028       -0.28292       -1.71086
