20

O          2.70259        0.54492       -1.42048
C          2.37024        0.03540       -0.12994
C          2.91729       -1.38888        0.05971
C          2.38319       -2.34894       -1.02129
O          2.77638       -1.97663       -2.33928
C          4.43288       -1.38886        0.07898
C          5.19271       -0.73590        1.20792
C          5.18750       -2.23258        1.07623
H          2.48148        1.49363       -1.41068
H          1.27879        0.03641       -0.04123
H          2.77734        0.71370        0.62698
H          2.55296       -1.75056        1.03045
H          1.28893       -2.37309       -0.99682
H          2.74512       -3.36750       -0.84548
H          2.81430       -0.99523       -2.35317
H          4.85817       -1.28737       -0.91576
H          4.63921       -0.29735        2.02930
H          6.10138       -0.20199        0.95115
H          4.63349       -2.80053        1.81473
H          6.10030       -2.71466        0.74383
