18

C          2.59743       -0.40328        1.44517
C          2.10826       -0.15070        0.02707
C          3.26922       -0.03462       -0.92421
C          4.24045       -1.24969       -1.23098
C          4.38033       -0.30603       -2.48818
O          2.85967       -0.23504       -2.38472
C          4.89612        0.99283       -1.98647
C          4.12716        1.18931       -0.90617
H          1.74972       -0.56310        2.11832
H          3.17623        0.44632        1.82156
H          3.23774       -1.29027        1.48961
H          1.48971        0.75362        0.00311
H          1.46044       -0.98448       -0.27056
H          3.76324       -2.22014       -1.39978
H          5.11605       -1.35897       -0.58589
H          4.74172       -0.71244       -3.43146
H          5.66945        1.61718       -2.40379
H          4.10880        2.01858       -0.21792
