18

C          0.96216       -0.13492       -0.05011
C          2.48070       -0.01376        0.03615
C          3.03833        1.04993       -0.91872
C          2.66310        2.46874       -0.56084
O          1.94721        2.78134        0.38471
C          3.08177        0.18133        1.42880
C          2.20582        0.35386        2.64190
O          4.31201        0.20233        1.56008
H          0.65010       -0.33601       -1.08068
H          0.44728        0.77106        0.28183
H          0.60305       -0.96508        0.56760
H          2.87393       -0.98509       -0.29710
H          2.69037        0.86277       -1.94066
H          4.13395        1.01040       -0.93419
H          3.07767        3.24296       -1.22965
H          1.14408        0.25500        2.42284
H          2.37863        1.34660        3.06567
H          2.47066       -0.41260        3.37566
