16

C          0.95380       -0.03399       -0.00121
C          2.48133        0.05570        0.02680
O          2.90736       -1.04176        0.83559
C          4.24600       -1.25820        0.92031
C          5.22354       -0.37265        1.13527
O          5.15854        0.97257        1.36124
C          4.05368        1.73423        1.12179
C          2.89730        1.40401        0.53479
H          0.63337       -1.02317       -0.34724
H          0.51431        0.72168       -0.66003
H          0.53433        0.09529        1.00445
H          2.84540       -0.08268       -1.00060
H          4.45027       -2.32256        0.88357
H          6.25421       -0.69139        1.24114
H          4.25597        2.75075        1.44162
H          2.18903        2.21231        0.37230
