14

C          1.53265        0.21857       -0.17692
C          2.83067       -0.31329        0.31777
O          3.48966        0.53887        1.26683
C          4.15809        0.37747        0.01109
C          5.15088       -0.72118       -0.09946
O          6.34274       -0.57004       -0.29825
C          4.44877       -2.02430       -0.00198
C          3.15255       -1.74691        0.21553
H          1.54077        1.31239       -0.24574
H          0.72528       -0.06646        0.50562
H          1.29521       -0.17757       -1.17024
H          4.19617        1.19497       -0.69405
H          4.93975       -2.97585       -0.09189
H          2.39443       -2.51042        0.33316
