20

C          1.01489        0.09938        0.07656
C          2.53226        0.08620        0.04919
C          3.03892       -0.55849       -1.23068
C          3.47353       -1.11151       -2.32855
C          3.95751       -1.74132       -3.56574
O          3.16306       -2.89036       -3.84165
C          3.88373       -0.76551       -4.74312
C          4.39868       -1.38022       -6.03810
H          0.65444        0.56434        0.99940
H          0.61049       -0.91732        0.02569
H          0.60984        0.66302       -0.77082
H          2.91895       -0.47244        0.90817
H          2.91828        1.10923        0.11113
H          4.98969       -2.08083       -3.42792
H          2.23472       -2.60386       -3.80278
H          4.46503        0.13731       -4.51914
H          2.84540       -0.44863       -4.90505
H          5.43691       -1.70947       -5.92995
H          4.35845       -0.64363       -6.84688
H          3.79323       -2.24102       -6.33869
