15

C          2.18770       -0.06328       -0.03112
C          1.36747        1.25751       -0.05463
C         -0.00870        0.75036       -0.03560
C         -1.31032        1.14746        0.08894
C         -2.02076       -0.07808        0.01982
N         -1.21472       -1.14106       -0.12795
N         -0.01305       -0.58820       -0.20726
N          1.25060       -1.17752       -0.31619
H          2.63670       -0.20261        0.95963
H          2.99748       -0.03839       -0.76740
H          1.56287        1.82297       -0.97083
H          1.59326        1.87790        0.81777
H         -1.70156        2.14543        0.21940
H         -3.08962       -0.23734        0.08196
H          1.34750       -1.90708        0.38419
