18

C          1.06623       -0.16374       -0.05813
C          2.55666        0.00561       -0.02612
C          3.47334       -0.70921       -1.10063
C          4.51775       -0.26325       -0.00216
C          3.43106       -0.83659        0.98937
O          4.54710        1.20342        0.08866
C          3.16533        1.36511        0.06532
C          2.54140        2.54028        0.10688
H          0.79357       -1.22260       -0.12129
H          0.62483        0.33879       -0.92505
H          0.59797        0.23959        0.84587
H          3.56200       -0.21769       -2.07423
H          3.33019       -1.78511       -1.24840
H          5.50722       -0.72252       -0.00960
H          3.47783       -0.46850        2.01870
H          3.28477       -1.92238        0.99836
H          3.11631        3.45865        0.16783
H          1.46168        2.62420        0.07923
