18

C          0.94433       -0.12598       -0.02256
C          2.41748       -0.03858       -0.12077
C          3.35770       -0.89117        0.31920
C          4.68567       -0.31371       -0.08654
C          4.29908        0.33554       -1.40836
C          3.16024        1.11761       -0.76726
C          3.96037        1.83610        0.33010
O          4.92705        0.82862        0.77372
H          0.62418       -1.15103        0.19295
H          0.47962        0.16915       -0.96922
H          0.56392        0.52700        0.76929
H          3.20700       -1.81131        0.86059
H          5.52262       -1.01147       -0.11347
H          3.97748       -0.37740       -2.17749
H          5.07977        0.98887       -1.81188
H          2.56859        1.74631       -1.43319
H          4.52631        2.68602       -0.06518
H          3.35806        2.15991        1.18452
