18

C         -1.46728        0.77068       -0.40013
C         -1.05789        0.08826        0.93611
C         -0.38067        1.44287        1.29840
C         -0.21587        1.68771       -0.22949
C          0.99412        1.15967       -0.92633
C          1.52062       -0.04580       -0.69520
C          1.08322       -1.02102        0.27232
C         -0.07554       -1.04006        0.94745
H         -2.40794        1.33294       -0.32402
H         -1.53171        0.15730       -1.30511
H         -1.93430       -0.16990        1.54508
H          0.53070        1.40210        1.89864
H         -1.07223        2.14071        1.79027
H         -0.39125        2.72742       -0.50851
H          1.40685        1.78043       -1.71792
H          2.37114       -0.35405       -1.29212
H          1.78067       -1.84136        0.45255
H         -0.27246       -1.83840        1.66269
