18

C          1.05032       -0.02742       -0.01970
C          2.54112        0.06935       -0.08875
C          3.23133        0.64106       -1.08385
C          2.70878        1.25649       -2.26443
C          3.73519        1.56412       -3.04590
O          4.99058        1.24888       -2.56549
C          4.73582        0.72996       -1.22982
C          5.38863        1.67813       -0.23143
H          0.75602       -0.59238        0.87072
H          0.64777       -0.55291       -0.89094
H          0.59694        0.96570        0.05146
H          3.08625       -0.38499        0.73568
H          1.66709        1.42116       -2.48972
H          3.72502        2.02132       -4.02224
H          5.19005       -0.26694       -1.16840
H          5.00871        2.69990       -0.34925
H          6.46811        1.72761       -0.41056
H          5.22088        1.35990        0.80157
