18

C          1.52203       -0.06642       -0.51928
C          2.91660        0.09651        0.05786
O          3.16750       -0.93972        1.05657
C          4.00800       -1.65096        0.10750
C          4.14755       -0.38998       -0.75347
C          5.26193        0.59936       -0.39696
C          4.52793        1.75843        0.20990
C          3.24425        1.48342        0.46795
H          1.31467       -1.11293       -0.77466
H          1.38881        0.52784       -1.42794
H          0.75922        0.24406        0.20648
H          3.46074       -2.47473       -0.36475
H          4.92787       -2.03157        0.55741
H          3.98528       -0.52615       -1.82763
H          5.81636        0.90877       -1.28816
H          5.96734        0.18501        0.33049
H          5.00202        2.70553        0.42035
H          2.53270        2.17393        0.90893
