17

N          1.14436       -1.02858        2.08903
N          2.55649       -1.14763        2.13774
C          3.25533       -0.82490        0.98453
N          2.63494       -0.47772       -0.10644
C          4.74201       -0.83735        0.93220
C          5.46156       -1.55876        1.80298
C          6.90416       -1.60385        1.78544
C          7.61345       -2.37452        2.61764
H          0.74921       -1.12307        3.02816
H          0.76872       -1.83177        1.57162
H          3.02528       -0.84105        2.99355
H          1.64116       -0.48737        0.16150
H          5.18951       -0.26237        0.12839
H          4.96417       -2.17315        2.54910
H          7.42695       -0.98231        1.06089
H          7.14358       -3.02065        3.35314
H          8.69832       -2.38081        2.57277
