16

C          0.80790        0.05582        0.62289
C          2.03799        0.05297        0.11004
O          2.84587       -1.10045        0.00335
C          3.90280       -0.63349       -0.88616
C          4.09431       -1.48533       -2.11149
C          5.19205       -1.37497       -1.09131
C          3.81580        0.80580       -1.06777
C          2.68461        1.22857       -0.50414
H          0.37460       -0.85386        1.01348
H          0.19945        0.95656        0.63192
H          3.53045       -2.41314       -2.14520
H          4.22796       -1.00852       -3.07142
H          5.45390       -2.33356       -0.66058
H          6.05983       -0.75031       -1.28012
H          4.53398        1.40794       -1.59340
H          2.30365        2.23300       -0.45645
