18

C          0.77145       -0.11168        1.13102
C          2.25373       -0.30303        1.39224
O          2.90941        0.94423        1.16980
C          4.26711        0.93741        1.29762
C          5.13422       -0.07563        1.33627
C          6.50350        0.46092        1.52320
O          6.37966        1.89343        1.48928
C          4.97813        2.22990        1.45620
H          0.21694       -1.02890        1.34842
H          0.60052        0.16271        0.08472
H          0.36925        0.70141        1.74422
H          2.63789       -1.07582        0.71706
H          2.40573       -0.61213        2.43309
H          4.91428       -1.12669        1.24658
H          7.18038        0.14733        0.72332
H          6.92031        0.16491        2.49010
H          4.80246        2.91215        0.62137
H          4.71814        2.72145        2.39764
