22

N          1.05587        0.08559       -0.12559
C          2.51168        0.07444       -0.06720
C          2.99164       -0.98709        0.92128
C          4.51964       -1.05679        0.95944
C          4.97981       -2.08263        1.98874
C          4.65915       -3.57314        1.74269
C          6.09714       -3.82051        2.21577
N          6.42427       -2.42619        1.83315
H          0.74889        0.83097       -0.74923
H          0.67614        0.30913        0.79380
H          2.87308        1.06333        0.23616
H          2.90748       -0.13561       -1.06640
H          2.58853       -1.96718        0.63503
H          2.60647       -0.76976        1.92583
H          4.92597       -0.07131        1.22032
H          4.89527       -1.30654       -0.04081
H          4.74090       -1.76092        3.01261
H          4.48210       -3.84083        0.69472
H          3.87080       -4.00329        2.36583
H          6.64961       -4.59020        1.66889
H          6.19662       -4.00990        3.29075
H          6.76168       -2.35121        0.87231
