22

N          0.94204        1.41785        1.09733
C          2.40105        1.45967        1.10818
C          2.97883        0.05893        1.31517
C          4.49870        0.07327        1.37642
N          5.14992        0.45145        0.11316
C          5.21028        0.81245        2.54064
C          6.22676       -0.34693        2.61019
C          5.19292       -1.22643        1.87490
H          0.57770        2.36564        1.00731
H          0.60190        1.06695        1.99185
H          2.73782        2.13568        1.90141
H          2.74270        1.87889        0.15611
H          2.63993       -0.61028        0.51367
H          2.58104       -0.35441        2.25189
H          4.93718        1.39320       -0.21155
H          4.92967       -0.17033       -0.66493
H          4.59888        0.89133        3.44898
H          5.62937        1.80044        2.32713
H          6.49995       -0.67851        3.61522
H          7.14355       -0.16659        2.03719
H          4.57912       -1.82133        2.56310
H          5.60027       -1.90388        1.11752
