18

O          1.61012        1.22384       -0.26771
C          2.43983        0.09532       -0.04889
C          2.98454        0.19960        1.33405
C          4.29202        0.21983        1.64095
C          4.81406        0.34516        3.04829
C          5.65376        1.56692        3.27153
C          5.06356        2.95062        3.18398
O          5.31802        2.31764        4.44627
H          1.26872        1.14759       -1.17451
H          3.22916        0.08360       -0.80602
H          1.83565       -0.81244       -0.14696
H          2.24295        0.27640        2.12652
H          5.03608        0.15279        0.85200
H          5.42607       -0.53943        3.26482
H          3.98510        0.32173        3.76640
H          6.69929        1.42712        3.03610
H          4.03321        3.05831        2.86775
H          5.71305        3.76613        2.89392
