18

C          1.18077        0.62713        1.66831
C          2.67395        0.74686        1.69504
O          3.28070        1.68758        2.18633
O          3.23879       -0.34353        1.10759
C          4.67677       -0.35969        1.09288
C          5.21612       -0.86217        2.43296
C          6.71601       -0.89051        2.46888
C          7.44094       -1.99505        2.68742
H          0.74020        1.49448        2.16842
H          0.87132       -0.27482        2.20278
H          0.82893        0.60286        0.63429
H          5.07107        0.63142        0.83454
H          4.97730       -1.03939        0.28744
H          4.79414       -1.85448        2.63821
H          4.85993       -0.21946        3.24630
H          7.22924        0.05945        2.32836
H          6.97514       -2.96222        2.84974
H          8.52527       -1.94988        2.71881
