19

N          0.92609        0.06782       -0.00245
C          2.38614       -0.03037        0.01374
C          3.08944       -0.81657       -1.05008
C          3.20464        0.68885       -1.03944
C          4.45448        1.36408       -0.62078
C          5.68660        0.87137       -0.84576
C          4.34217        2.66527        0.03781
C          3.20789        3.32338        0.30906
H          0.51959       -0.56996        0.68147
H          0.54340       -0.20999       -0.90511
H          2.81524       -0.06787        1.01401
H          2.51016       -1.26145       -1.85027
H          3.93080       -1.42527       -0.73864
H          2.66873        1.21459       -1.82538
H          5.82956       -0.07640       -1.35373
H          6.58613        1.39353       -0.53573
H          5.27697        3.14469        0.32742
H          2.22682        2.92995        0.06158
H          3.23767        4.29194        0.79927
