14

C          1.14160       -0.04474        0.33566
C          2.38882        0.07638       -0.12760
C          3.34900       -0.97506       -0.49469
O          3.79163       -1.15578       -1.84799
C          4.56982       -0.26289       -1.05200
C          4.28830        1.21219       -1.18991
C          2.97365        1.41800       -0.45495
O          2.46972        2.49565       -0.18049
H          0.69771       -1.01749        0.51283
H          0.52596        0.83222        0.52173
H          3.51159       -1.77498        0.21989
H          5.56521       -0.54012       -0.74557
H          4.16940        1.49672       -2.23888
H          5.07417        1.80321       -0.71315
