15

N          2.70892        0.41412       -1.35462
C          2.43636        0.04636        0.03627
C          2.94975       -1.33118        0.37111
C          4.24782       -1.51311        0.83852
N          4.75944       -2.73181        1.13830
C          3.92349       -3.77234        0.92866
C          2.63670       -3.60535        0.44671
N          2.12060       -2.38903        0.15656
H          2.18434        1.25781       -1.57926
H          2.31748       -0.32041       -1.94800
H          1.35427        0.07175        0.21005
H          2.88334        0.78879        0.70660
H          4.92144       -0.67483        0.98234
H          4.32003       -4.75469        1.15765
H          1.98127       -4.45213        0.27906
