16

C         -0.48432       -0.55370       -0.10076
C         -0.17471       -0.83365       -1.53338
N          0.82734       -0.20049       -0.65874
C          1.91842       -0.98697       -0.31706
N          1.92542       -2.29220       -0.19134
C          3.32276       -2.65382        0.10782
C          4.04434       -1.36204        0.16198
C          3.22405       -0.34352       -0.08081
H         -0.48207       -1.36752        0.61184
H         -1.09000        0.30880        0.13392
H         -0.53954       -0.16457       -2.29665
H          0.02924       -1.85303       -1.83021
H          3.72103       -3.29167       -0.68763
H          3.38311       -3.18541        1.06196
H          5.09948       -1.26991        0.37411
H          3.41710        0.71234       -0.11498
