20

C          1.07272       -0.13224        0.14961
C          2.56350        0.06441        0.03312
C          3.09920        1.28592        0.20079
C          3.35422       -1.20230       -0.23949
O          2.92912       -1.71586       -1.49964
C          4.85685       -1.09571       -0.28370
C          5.66629       -0.78674        0.95406
C          5.70935       -2.16460        0.36071
H          0.55338        0.79531        0.41363
H          0.84440       -0.86887        0.92666
H          0.65550       -0.48414       -0.79911
H          2.47961        2.15180        0.41870
H          4.16799        1.46512        0.14042
H          3.07132       -1.94479        0.51663
H          3.01433       -0.98409       -2.13369
H          5.20926       -0.67546       -1.21952
H          5.14144       -0.64710        1.89221
H          6.53824       -0.15336        0.83520
H          5.22343       -2.96291        0.91097
H          6.61289       -2.47178       -0.15286
