16

C          1.08535       -0.02038        0.14172
C          2.57081       -0.07301        0.04148
C          3.30201       -1.18724       -0.07019
C          4.69994       -0.74641       -0.14776
O          5.63531       -1.53005       -0.19723
C          4.81715        0.74645       -0.19537
C          3.38705        1.18413        0.10220
O          2.93160        2.11318       -0.86536
H          0.64497       -1.02307        0.11763
H          0.66481        0.54588       -0.69562
H          0.78098        0.45990        1.07596
H          2.99135       -2.21663       -0.10703
H          5.15858        1.05910       -1.18725
H          5.51130        1.09481        0.57336
H          3.31555        1.64873        1.09154
H          2.83714        1.64743       -1.71523
