18

C          1.06943       -0.01871        0.24818
C          2.55961       -0.09539       -0.07050
C          2.90913       -1.33722       -0.85635
O          1.99121       -1.74500       -1.87521
C          3.10320       -0.95363       -2.29039
C          2.84452        0.51753       -2.43332
C          3.01661        1.05310       -1.00082
O          4.39956        1.34563       -0.76584
H          0.76875       -0.85871        0.88333
H          0.45180       -0.05221       -0.65584
H          0.83455        0.91112        0.77658
H          3.13211       -0.08057        0.86429
H          3.55994       -2.05461       -0.38318
H          3.89358       -1.38138       -2.88357
H          1.82148        0.68380       -2.78886
H          3.54914        0.97795       -3.13189
H          2.46361        1.98285       -0.83926
H          4.91573        0.53451       -0.90945
