16

C          1.94943       -1.26681        0.40896
C          2.30574       -0.03036        0.03446
C          3.18764        0.82879        0.88720
C          2.95855        2.35244        0.70861
O          2.83259        2.54686        2.14095
C          2.68846        1.11398        2.32446
C          4.58155        0.41480        0.78263
C          5.72990        0.06887        0.69624
H          1.32603       -1.87950       -0.23535
H          2.27253       -1.70390        1.34930
H          1.97875        0.36338       -0.92428
H          2.03584        2.65316        0.19900
H          3.79342        2.92668        0.29420
H          1.64542        0.85970        2.54410
H          3.32107        0.74680        3.13946
H          6.74686       -0.24167        0.61974
