20

C          1.01953       -0.03691       -0.07328
C          2.55939       -0.06280       -0.08821
C          3.05915        1.18928       -0.82292
C          3.05918       -0.06687        1.36348
C          3.04138       -1.33400       -0.81852
O          2.25476       -2.15538       -1.29038
C          4.51630       -1.55928       -0.94815
C          4.99507       -2.64327       -1.57080
H          0.64091        0.85472        0.43898
H          0.61228       -0.91529        0.44098
H          0.61224       -0.03508       -1.09109
H          2.66685        2.10204       -0.36033
H          2.74382        1.18098       -1.87268
H          4.15164        1.26298       -0.81218
H          2.66687        0.79248        1.91899
H          4.15169       -0.02048        1.42175
H          2.74380       -0.97789        1.88510
H          5.18761       -0.82336       -0.52538
H          4.33353       -3.39143       -2.00054
H          6.06320       -2.80675       -1.66471
