18

N          1.05062        0.28945       -0.26559
C          2.49958        0.24238       -0.05576
C          2.93584        1.46856        0.70245
C          3.39237        1.11896        1.91685
C          3.34940       -0.33219        2.16727
C          4.25116       -1.21903        1.36443
C          2.83806       -0.95674        0.87730
N          1.94242       -2.13570        0.87205
H          0.82087        1.15975       -0.74019
H          0.61015        0.35363        0.65283
H          3.02777        0.14261       -1.00668
H          2.92005        2.47356        0.30483
H          3.79245        1.81634        2.64191
H          2.93076       -0.67050        3.10506
H          4.47484       -2.19365        1.78649
H          5.07776       -0.78212        0.82206
H          1.62102       -2.26516       -0.09139
H          1.08700       -1.90552        1.37250
