20

C          1.58150       -0.28853        1.16125
C          2.44421        0.04642       -0.04758
O          1.65837       -0.05586       -1.22890
C          2.98937        1.44200        0.02613
C          4.29858        1.74527        0.03017
C          4.82424        3.15641        0.08828
C          5.67676        3.50966       -1.13140
O          4.89933        3.50651       -2.32390
H          1.17179       -1.30010        1.06614
H          0.72348        0.38912        1.24008
H          2.15648       -0.23226        2.09123
H          3.25193       -0.68938       -0.12907
H          0.97367        0.63247       -1.18998
H          2.25965        2.24740        0.07257
H          5.03914        0.94879       -0.01380
H          5.43040        3.26268        0.99534
H          3.99220        3.86711        0.16332
H          6.51332        2.81441       -1.25596
H          6.09036        4.51635       -1.01228
H          4.51227        2.61652       -2.41287
