20

C          1.49225       -0.82381       -0.69950
C          2.48119        0.10409       -0.01509
C          3.01471        1.17237       -0.92370
C          2.15492        2.24793       -1.53863
O          0.75535        2.19738       -1.22849
C          3.08208        2.58518       -0.40014
O          4.26834        3.32532       -0.74861
C          5.11039        3.55285        0.37551
H          1.26231       -1.67311       -0.04847
H          1.88709       -1.20673       -1.64518
H          0.54860       -0.31187       -0.91173
H          3.33225       -0.48810        0.34259
H          2.00822        0.53873        0.87400
H          3.83495        0.80963       -1.53199
H          2.43424        2.60373       -2.52684
H          0.48652        2.94998       -0.67501
H          2.60513        2.81354        0.54889
H          6.00568        4.08265        0.04070
H          5.40766        2.60114        0.82661
H          4.59085        4.17168        1.11372
