17

N          1.17448        0.01252        0.76726
C          2.35190       -0.00086       -0.09275
C          2.93104       -1.36560       -0.15445
C          4.23669       -1.79145       -0.32202
C          4.21799       -3.19966       -0.33588
N          5.27445       -4.00589       -0.47994
C          2.92373       -3.61790       -0.17688
N          2.14472       -2.49430       -0.07423
H          0.78397        0.95380        0.76097
H          1.48551       -0.14946        1.72540
H          3.09184        0.71003        0.29143
H          2.07119        0.32123       -1.10079
H          5.09997       -1.14896       -0.42761
H          6.18811       -3.64914       -0.73747
H          5.16635       -5.00563       -0.61208
H          2.48172       -4.60180       -0.12690
H          1.14207       -2.46693        0.06429
