20

C          1.05859        0.00719       -0.03787
C          2.56323       -0.07903       -0.12998
C          3.19977       -0.98134       -1.08182
C          2.61019       -1.81461       -1.94747
C          3.29061        0.70644        0.69610
C          4.79254        0.77957        0.76879
C          5.27106        1.74361        1.81770
C          6.04312        1.39911        2.85704
H          0.52816       -0.65101       -0.72833
H          0.72414        1.02825       -0.25517
H          0.72471       -0.25822        0.97185
H          4.28902       -0.98453       -1.09366
H          1.53826       -1.92187       -2.04945
H          3.22015       -2.43388       -2.59930
H          2.74996        1.35550        1.38490
H          5.18848        1.11669       -0.19645
H          5.19630       -0.21980        0.97131
H          4.98787        2.78693        1.69423
H          6.36281        0.37322        3.01379
H          6.37699        2.14275        3.57382
