20

N          1.00726        0.01146        0.22145
C          2.45876        0.00451        0.01844
C          3.15150        1.05011        0.92044
N          4.10592        0.00455        1.37819
C          5.30650        0.00726        0.52864
C          6.27034       -1.06267        0.95668
C          6.71891       -2.04476        0.16340
C          3.13720       -1.03857        0.93328
H          0.53558        0.78596       -0.24340
H          0.72148        0.05410        1.19963
H          2.78401       -0.00992       -1.02609
H          2.54275        1.44252        1.74607
H          3.58624        1.90945        0.39719
H          5.82045        0.96919        0.65343
H          5.07694       -0.08412       -0.54074
H          6.62403       -1.00740        1.98366
H          6.39090       -2.14151       -0.86694
H          7.42097       -2.78305        0.53861
H          2.52364       -1.41125        1.76428
H          3.55400       -1.91094        0.41850
