18

O          1.75684        0.75914        0.93873
C          2.56530       -0.03069        0.08290
C          3.00241        0.82950       -1.05293
C          4.28634        1.06368       -1.37022
C          4.76425        1.88206       -2.48437
C          4.09488        2.99514       -2.84247
C          6.06424        1.66082       -3.11755
C          6.65248        0.46536       -3.25484
H          1.49917        0.19028        1.68282
H          1.96767       -0.86809       -0.29067
H          3.40985       -0.42506        0.65677
H          2.19976        1.26382       -1.64225
H          5.07093        0.60079       -0.77333
H          3.16515        3.28969       -2.36638
H          4.45376        3.65428       -3.62679
H          6.57658        2.53754       -3.51226
H          6.18762       -0.45086       -2.90594
H          7.61797        0.37984       -3.74276
