16

C          0.96495        0.04747        0.05091
C          2.44642       -0.09343        0.05151
C          3.18604       -1.21324        0.05293
C          2.83957       -2.65012        0.05439
C          4.58701       -0.74396        0.05282
O          5.58036       -1.44519        0.05381
C          4.58660        0.72521        0.05120
C          3.29778        1.07139        0.05045
H          0.45835       -0.92193        0.05185
H          0.63207        0.59414       -0.83766
H          0.63152        0.59616        0.93801
H          1.75812       -2.81190        0.05458
H          3.25015       -3.14137        0.94222
H          3.25014       -3.14318       -0.83244
H          5.46823        1.33835        0.05075
H          2.92776        2.08684        0.04931
