18

C          3.12110       -0.04167       -1.12105
O          2.33015        0.07868        0.05299
C          2.89086       -0.50436        1.24753
C          2.01237       -0.38822        2.51506
C          2.43805       -1.82776        2.89132
C          2.76943       -2.03928        1.39418
C          3.56478       -1.92370        3.80333
C          4.49365       -1.99506        4.56065
H          2.65420        0.54444       -1.91674
H          3.17182       -1.08858       -1.43270
H          4.12856        0.34535       -0.94282
H          3.91062       -0.13575        1.42353
H          0.94024       -0.28767        2.30596
H          2.30196        0.40437        3.21183
H          1.59643       -2.44417        3.23074
H          1.94345       -2.47676        0.81988
H          3.67991       -2.60399        1.17027
H          5.31601       -2.05304        5.23694
