17

N          1.01138        0.05618       -0.00996
C          2.46829        0.02429       -0.07005
C          3.13765        1.21875        0.65513
C          4.40995        0.58993        1.18036
N          5.43327        1.25455        1.58584
N          4.26799       -0.76036        1.18281
C          3.12492       -1.19619        0.57282
C          2.65227       -2.44653        0.55023
H          0.67707        0.93815       -0.39313
H          0.71985        0.04250        0.96710
H          2.77359        0.04786       -1.12341
H          2.55198        1.56919        1.51355
H          3.33954        2.05819       -0.01473
H          5.27173        2.26097        1.47674
H          4.95584       -1.38222        1.58112
H          3.17171       -3.26088        1.04210
H          1.72465       -2.67895        0.03568
