20

C          1.01472        0.12145        0.00166
C          2.53223        0.06229        0.05038
C          3.14647        1.13219        0.92733
O          4.46326        0.64757        1.21322
C          4.34825       -0.77740        1.40705
C          5.64496       -1.44157        0.98271
C          3.07500       -1.22248        0.66438
O          3.28672       -2.20507       -0.34192
H          0.67897        1.06733       -0.43568
H          0.57890        0.04116        1.00345
H          0.61424       -0.69612       -0.60647
H          2.91704        0.17009       -0.97237
H          2.60922        1.26282        1.87371
H          3.21517        2.10055        0.42349
H          4.20354       -0.93178        2.48356
H          5.88369       -1.21528       -0.06178
H          5.59860       -2.52678        1.11290
H          6.47901       -1.05687        1.57989
H          2.37201       -1.65301        1.38684
H          3.88176       -1.82547       -1.01282
