16

C          0.98637       -0.02593       -0.13537
C          2.31904       -0.01727       -0.04986
C          3.22502       -1.22195       -0.01428
C          4.56775       -0.67547        0.48550
C          4.40180        0.80087        0.33336
C          5.51063        1.74615        0.50166
O          6.64529        1.37960        0.77760
C          3.14539        1.15629        0.05264
H          0.43740       -0.96054       -0.19477
H          0.40713        0.89174       -0.13777
H          3.34184       -1.62695       -1.02705
H          2.84728       -2.01673        0.63704
H          5.39952       -1.06925       -0.10550
H          4.72788       -0.93534        1.53817
H          5.25952        2.81134        0.36139
H          2.77794        2.16568       -0.06861
