16

C          0.69262       -0.23105        0.00996
C          2.16629        0.17244        0.07380
C          2.30600        1.51591        0.72616
C          3.40710        1.81554        1.42021
C          4.50823        0.82780        1.58159
O          4.07318       -0.53802        1.47971
C          2.97870       -0.91663        0.77663
O          2.69580       -2.10909        0.68010
H          0.10117        0.51843       -0.52695
H          0.26508       -0.34955        1.01233
H          0.56912       -1.18380       -0.51589
H          2.54921        0.24679       -0.95326
H          1.52732        2.26135        0.58766
H          3.53471        2.80232        1.85634
H          4.95248        0.94182        2.57667
H          5.29691        0.99934        0.84289
