20

C          0.68932        0.04376        0.18382
C          2.17729        0.10626        0.16293
C          3.02619       -0.84604       -0.64685
C          2.54634       -1.62448       -1.82462
O          2.57888       -0.72220       -2.94266
C          2.41140        0.61536       -2.43743
C          3.14387        1.58266       -3.34901
C          2.95360        0.59299       -1.03912
H          0.35808       -0.67034        0.94412
H          0.25075       -0.25814       -0.77049
H          0.28110        1.02553        0.44457
H          2.55879        0.39159        1.13909
H          3.95135       -1.22008       -0.23102
H          1.52535       -1.99618       -1.69474
H          3.19983       -2.47319       -2.04719
H          1.34204        0.85106       -2.44863
H          4.22031        1.37921       -3.35999
H          2.99449        2.61666       -3.02248
H          2.79015        1.48303       -4.38050
H          3.83304        1.20350       -0.88518
