18

N          0.96279       -0.05154        0.03440
C          2.41477       -0.06654        0.05022
C          2.92143       -0.85696       -1.14516
C          3.35605       -1.53499       -2.17055
C          3.85984       -2.27472       -3.33529
N          5.14477       -2.87839       -3.00830
C          2.88670       -3.35015       -3.71564
C          2.27442       -3.44194       -4.90586
H          0.62345        0.39858        0.88121
H          0.62260       -1.01133        0.05992
H          2.78072       -0.52956        0.97222
H          2.80099        0.95606       -0.00103
H          4.00615       -1.57990       -4.17063
H          5.03051       -3.44850       -2.17354
H          5.78523       -2.13145       -2.74583
H          2.66822       -4.10577       -2.96469
H          2.45577       -2.72105       -5.69692
H          1.58183       -4.25162       -5.11228
