13

N          1.45476       -0.29632       -0.40318
C          2.66266        0.05126       -0.14588
N          3.78138       -0.60154       -0.57028
C          4.92423       -0.15836        0.22546
C          4.22653        0.77502        1.19356
C          2.99455        1.13476        0.78028
C          5.92869        0.59420       -0.57296
N          6.72091        1.18555       -1.20902
H          1.44244       -1.09836       -1.03337
H          3.70671       -1.57779       -0.79783
H          5.39334       -1.01424        0.74248
H          4.69277        1.14233        2.09085
H          2.33455        1.90019        1.14800
