16

N          1.04750       -0.23767        0.09676
N          2.40049       -0.14001        0.04043
C          3.05986        0.22129        1.09904
C          2.36693        0.54452        2.32425
C          1.80533        0.83047        3.34687
C          4.53481        0.27870        1.05495
C          5.23912        1.15853        0.04752
C          5.28203        1.51418        1.50331
H          0.65902       -0.27601       -0.84689
H          0.60470        0.54853        0.57447
H          1.30172        1.08664        4.25002
H          5.00447       -0.67791        1.26393
H          4.63479        1.77196       -0.61175
H          6.14148        0.77283       -0.41289
H          4.71770        2.38215        1.82526
H          6.21469        1.37102        2.03720
