18

C          1.20178       -0.06239       -0.00617
O          2.61953        0.01464       -0.08312
C          3.17346        0.76404       -1.10121
C          2.49071        1.48723       -2.00623
C          4.68578        0.73644       -1.10702
O          5.11413       -0.38724       -1.88314
C          6.47430       -0.49176       -1.97284
C          7.04766       -1.44747       -2.70490
H          0.94520       -0.70589        0.84100
H          0.78321       -0.51448       -0.91106
H          0.76525        0.92453        0.17825
H          1.40956        1.53571       -2.03597
H          3.01578        2.04378       -2.77734
H          5.05836        0.64736       -0.07814
H          5.08583        1.66383       -1.53764
H          7.04775        0.23577       -1.41435
H          6.44107       -2.16445       -3.24894
H          8.12568       -1.53308       -2.77124
