14

O          2.53102        0.94559        0.77093
C          2.14620       -0.04102        0.14670
C          0.75628       -0.43685        0.27154
C         -0.39478       -0.76554        0.37040
C          2.99017       -0.90252       -0.83801
C          4.48688       -1.08443       -0.53562
C          4.22842       -2.55385       -0.84675
O          2.79627       -2.35488       -0.73982
H         -1.41476       -1.06146        0.45905
H          2.80750       -0.59031       -1.87592
H          4.77789       -0.89020        0.50094
H          5.16997       -0.57263       -1.21699
H          4.60366       -3.26507       -0.10672
H          4.50476       -2.87904       -1.85471
