19

C          1.43999        0.78998       -0.50506
N          2.75737        0.25558       -0.18039
N          3.25382       -0.62554       -1.08273
C          4.48425       -0.97536       -0.86472
C          5.24559       -1.89900       -1.75360
C          4.56040       -2.73217       -2.55362
C          6.73831       -1.86125       -1.65184
N          7.26846       -0.54841       -2.00318
H          1.10336        1.46030        0.29171
H          0.70614       -0.01730       -0.59991
H          1.46778        1.35452       -1.44188
H          3.39865        1.03342       -0.01122
H          5.05413       -0.59175        0.00264
H          3.47293       -2.73038       -2.57366
H          5.06273       -3.43364       -3.20944
H          7.19064       -2.61060       -2.31213
H          7.04394       -2.11139       -0.62922
H          7.00861       -0.33521       -2.96643
H          8.28617       -0.58461       -1.99098
