18

C          1.04538       -0.05722        0.04438
C          2.56689       -0.07702        0.05571
O          3.03255       -0.08727        1.43003
C          3.29308       -1.04093       -0.95580
C          4.79258       -0.83351       -0.78683
C          4.79396        0.69704       -0.76484
C          3.29437        0.91095       -0.93059
O          2.89584       -0.05284       -2.01463
H          0.64274       -0.91554        0.59301
H          0.63180       -0.09390       -0.96889
H          0.66985        0.85402        0.52191
H          2.68209       -0.91113        1.81098
H          2.87614       -2.03525       -1.11816
H          5.36093       -1.22784       -1.63448
H          5.17790       -1.26587        0.14066
H          5.36420        1.11574       -1.59899
H          5.17725        1.10144        0.17605
H          2.87894        1.90938       -1.06934
