20

C          2.12661       -1.95449        0.75150
O          3.00261       -0.95670        0.23513
C          3.67835       -0.28796        1.21908
C          4.54066        0.69184        0.92801
C          5.30261        1.47607        1.95277
C          6.78548        1.33577        1.75919
C          7.61340        2.36407        1.51394
C          9.08980        2.22398        1.33181
H          1.62721       -2.43852       -0.09280
H          1.36049       -1.50556        1.39295
H          2.68781       -2.71692        1.30245
H          3.46617       -0.60163        2.23295
H          4.69783        0.95822       -0.11476
H          5.05240        1.14168        2.96680
H          4.99750        2.52701        1.88301
H          7.18832        0.32765        1.83891
H          7.21479        3.37346        1.43721
H          9.42148        1.18458        1.41883
H          9.61578        2.81452        2.08834
H          9.38004        2.59371        0.34365
