20

C          0.88650        0.09933       -0.19491
C          2.36078       -0.08504       -0.09489
C          3.19517       -0.78630       -1.15468
C          2.64828       -1.32397       -2.44074
O          4.27229       -1.58083       -0.60917
C          3.32722        0.71689       -0.93291
C          2.84152        1.73705       -1.91280
O          4.53906        1.11337       -0.25995
H          0.38101       -0.59577        0.48362
H          0.49473       -0.07147       -1.20058
H          0.61374        1.11522        0.10919
H          2.64610       -0.21981        0.94464
H          3.28127       -2.13795       -2.81189
H          2.62228       -0.56846       -3.23120
H          1.64216       -1.73083       -2.31141
H          3.93797       -2.44955       -0.31859
H          1.88584        1.46819       -2.37214
H          3.57347        1.86802       -2.71614
H          2.70728        2.70254       -1.41440
H          5.08097        0.31691       -0.09353
