20

C          0.98482        0.15115       -0.17751
C          2.48418        0.01746        0.04169
O          2.82749       -1.35651        0.28614
C          2.84285       -1.73552        1.66988
C          3.38022       -0.60398        2.54396
C          2.39377        0.59370        2.57571
C          2.99147        0.91846        1.17425
C          4.32538        0.36908        1.77429
H          0.68205       -0.42148       -1.06109
H          0.69427        1.19613       -0.32002
H          0.41151       -0.25806        0.66021
H          2.99234        0.29781       -0.88822
H          3.48571       -2.61748        1.75241
H          1.83260       -2.03187        1.97215
H          3.72718       -0.93728        3.52580
H          2.61475        1.34364        3.34605
H          1.32926        0.35645        2.63414
H          2.99607        1.98105        0.91250
H          4.86618        1.07857        2.41256
H          5.03716       -0.08147        1.07693
