19

N          1.90918       -0.66238       -1.03056
C          3.03091       -0.15537       -0.20982
C          3.83034       -1.16905        0.56540
C          4.44809       -0.44893       -0.60133
N          4.73215       -1.20906       -1.83440
C          5.24009        0.81868       -0.35804
N          4.21678        1.88569       -0.35574
C          3.01047        1.28891        0.25709
H          1.22938       -1.14063       -0.44160
H          1.41447        0.10596       -1.47261
H          3.57292       -2.21602        0.45646
H          4.16006       -0.91155        1.56487
H          3.96309       -1.86113       -2.00157
H          5.57737       -1.76501       -1.72584
H          5.98335        1.00784       -1.13898
H          5.75658        0.78298        0.60802
H          3.99087        2.04733       -1.33974
H          2.11660        1.83177       -0.06958
H          3.07026        1.35399        1.35004
