16

C          1.02895        0.15856        0.01584
C          2.36739        0.26988        0.06702
C          3.17851       -0.99600        0.12712
C          4.66737       -1.02219        0.05891
C          5.56647       -0.04136        0.02439
C          5.31215        1.36110        0.04526
C          4.13963        1.99628        0.08032
O          2.85683        1.56100        0.10436
H          0.53268       -0.80576        0.00685
H          0.40019        1.04323       -0.00789
H          2.83487       -1.63813       -0.69761
H          2.90202       -1.52011        1.05270
H          5.06979       -2.03601        0.04803
H          6.62031       -0.31475       -0.01529
H          6.20818        1.98093        0.03409
H          4.11394        3.08195        0.09394
