18

C          0.99212       -0.20340        0.02237
C          2.50242       -0.06274        0.05590
C          3.19749        0.99675        0.99003
C          4.25511       -0.07664        1.40598
C          3.26714       -1.13361        0.87019
O          3.14219       -2.32723        1.03780
C          2.38945        1.51899        2.13104
C          1.63494        2.61324        1.97870
H          0.53851        0.66043       -0.47272
H          0.56065       -0.29418        1.02435
H          0.70480       -1.09673       -0.54344
H          2.88966       -0.01298       -0.97214
H          3.65675        1.81885        0.42451
H          4.48374       -0.16229        2.47040
H          5.18701       -0.04065        0.83340
H          2.41430        1.00375        3.08779
H          1.57862        3.15297        1.03905
H          1.04331        2.99354        2.80694
