15

C          1.42674        0.34334        0.16694
N          2.67830        0.05079        0.09488
N          3.11075       -1.26008       -0.04350
C          2.20260       -2.41029       -0.15918
C          1.90953       -3.00818        1.15527
C          1.68619       -3.54075        2.21069
C          4.47094       -1.49264       -0.06847
N          5.38554       -0.58518        0.00699
H          1.14397        1.40339        0.27461
H          0.59060       -0.36897        0.12748
H          2.66176       -3.17230       -0.80146
H          1.27663       -2.14229       -0.67655
H          1.50268       -4.02900        3.14019
H          4.75252       -2.55316       -0.17334
H          4.85140        0.29476        0.09654
