23

N          1.78422        1.33341        2.41086
C          2.07586       -0.04730        2.03532
C          3.49768       -0.19697        1.48848
C          4.62184        0.16439        2.48993
C          4.62888       -0.74726        3.73855
N          4.71775       -2.17597        3.44146
C          6.01206        0.15830        1.81957
N          6.16010        1.20475        0.80506
H          0.80016        1.41681        2.65231
H          1.93730        1.94506        1.60835
H          1.36510       -0.35734        1.26055
H          1.91293       -0.70158        2.89779
H          3.57822        0.43215        0.59383
H          3.63034       -1.22814        1.13883
H          4.44652        1.18664        2.85310
H          5.47445       -0.47158        4.38067
H          3.72624       -0.57417        4.33331
H          4.91800       -2.68244        4.30480
H          5.50062       -2.36650        2.81807
H          6.21757       -0.81223        1.35583
H          6.78404        0.32630        2.57945
H          5.54156        1.01550        0.02116
H          7.10760        1.17747        0.43039
