20

O          0.99557        0.48207        0.52422
C          2.35658        0.26502        0.17606
C          2.97546       -0.80018        1.09123
C          2.25946       -2.15994        0.95650
C          2.88816       -2.77243       -0.26703
C          4.13595       -3.60526       -0.19772
C          4.23339       -2.12854       -0.45701
C          4.41648       -1.12185        0.65023
H          0.59561        0.98942       -0.20315
H          2.89054        1.21504        0.28295
H          2.39915       -0.03187       -0.87763
H          2.93253       -0.44767        2.12820
H          1.17472       -2.06517        0.85944
H          2.46652       -2.78326        1.83530
H          2.22448       -2.84663       -1.11789
H          4.33551       -4.27669       -1.02602
H          4.45511       -3.98970        0.76410
H          4.49501       -1.76463       -1.44115
H          4.95897       -0.23344        0.31323
H          4.97846       -1.57171        1.47769
