24

C          0.96557       -0.10116        0.07932
C          2.49579       -0.08085        0.07698
C          3.02447       -1.43121       -0.41212
C          3.00545        1.09971       -0.77448
C          4.53679        1.20316       -0.82000
C          5.03783        2.42060       -1.56302
C          4.74742        2.51830       -3.03444
C          5.76971        3.36888       -0.95301
H          0.58598       -0.91425        0.70750
H          0.56847       -0.24160       -0.93183
H          0.56395        0.83894        0.47268
H          2.83211        0.06267        1.11145
H          2.79715       -1.58634       -1.47164
H          2.57445       -2.25316        0.15509
H          4.10803       -1.50609       -0.27881
H          2.59509        2.03299       -0.36565
H          2.60720        1.00564       -1.79223
H          4.96282        0.31799       -1.30864
H          4.91979        1.20460        0.20837
H          4.11288        1.69682       -3.38019
H          5.67756        2.47360       -3.61058
H          4.23088        3.45533       -3.26546
H          6.01768        3.30830        0.10199
H          6.15231        4.22478       -1.50027
