20

C          1.54903        1.28556       -0.50275
O          2.10553        0.06086       -0.04563
C          2.63087       -0.81216       -1.07410
C          3.26755       -2.11991       -0.56724
C          2.02920       -2.89004       -1.03776
C          1.59834       -1.66473       -1.86672
O          1.81725       -1.77413       -3.29372
C          1.34952       -0.68054       -4.07101
H          1.33372        1.91543        0.36373
H          0.61868        1.09520       -1.04465
H          2.25769        1.80948       -1.15133
H          3.32776       -0.25750       -1.71568
H          4.18804       -2.39116       -1.09594
H          3.45504       -2.16788        0.50955
H          1.33032       -3.14248       -0.23266
H          2.24559       -3.79647       -1.61083
H          0.55324       -1.39729       -1.66530
H          1.68832       -0.81485       -5.10120
H          1.74969        0.26220       -3.68694
H          0.25631       -0.65486       -4.05538
