22

C          1.02257       -0.02712        0.16804
C          2.54347        0.00293        0.09762
O          3.02690       -1.33566        0.17605
C          3.03823        0.66983       -1.19116
C          4.57003        0.75973       -1.23217
C          5.09409        1.36424       -2.51563
C          4.77799        2.80671       -2.79666
C          5.85857        0.65998       -3.36568
H          0.69302       -0.53157        1.08327
H          0.60061       -0.59153       -0.67081
H          0.60310        0.98321        0.15667
H          2.93087        0.54243        0.96881
H          2.69094       -1.82013       -0.59777
H          2.60097        1.67261       -1.26638
H          2.69164        0.09607       -2.06021
H          4.99453       -0.24331       -1.09724
H          4.92969        1.35936       -0.38672
H          4.18186        3.25446       -1.99592
H          4.20975        2.90049       -3.72791
H          5.69906        3.39266       -2.88208
H          6.11978       -0.37699       -3.17347
H          6.25124        1.10456       -4.27525
