18

C         -1.23170        0.42780       -1.04222
C          0.23900        0.70577       -1.42135
C          1.21275        0.30658       -0.30427
O          0.94805       -1.08448       -0.01737
C         -0.23990       -1.03582        0.80358
C         -1.41548       -0.82583       -0.15987
C          0.03524        0.15860        1.66100
C          0.89294        0.95033        1.00735
H         -1.84380        0.34365       -1.94778
H         -1.61963        1.29731       -0.49586
H          0.36118        1.76106       -1.69012
H          0.47260        0.10984       -2.31233
H          2.26126        0.41874       -0.59207
H         -0.31744       -1.96446        1.37478
H         -1.47710       -1.69605       -0.82494
H         -2.36416       -0.76077        0.38579
H         -0.42155        0.35774        2.61761
H          1.25923        1.90967        1.33641
