18

O          1.92718       -1.12849       -0.66277
C          2.41483       -0.03599        0.10425
C          2.89256       -0.50946        1.43409
C          2.89257       -1.75677        1.92850
C          3.37632       -1.80337        3.33796
C          4.01805       -0.43022        3.52031
C          3.39216        0.46921        2.45058
O          4.36563        1.33108        1.88995
H          1.63524       -0.76095       -1.51269
H          1.60375        0.68833        0.22814
H          3.23278        0.43266       -0.45157
H          2.53426       -2.62550        1.39049
H          4.10530       -2.60394        3.49257
H          2.53525       -1.95046        4.02329
H          5.10647       -0.50097        3.39300
H          3.84761       -0.03714        4.52851
H          2.56993        1.06822        2.85574
H          5.06308        0.76722        1.51303
