19

N          1.05645       -0.00501        0.12097
C          2.52423       -0.01216        0.04524
C          3.02297        0.06715       -1.42276
N          2.50961       -1.05876       -2.22630
N          2.89145       -1.06162       -3.52656
C          2.45623       -2.07850       -4.19388
C          3.06233        1.12106        0.87394
C          3.90139        0.96841        1.90842
H          0.71995       -0.72803       -0.51818
H          0.71717        0.86107       -0.29777
H          2.86411       -0.96563        0.47001
H          4.11980        0.05475       -1.43953
H          2.69563        1.01061       -1.87892
H          2.75691       -1.93262       -1.75358
H          2.71511       -2.17809       -5.25981
H          1.82309       -2.87174       -3.75966
H          2.74325        2.12644        0.60799
H          4.24562       -0.01137        2.22422
H          4.25048        1.82785        2.47177
