18

C          1.02595       -0.01386        0.25411
C          2.35806       -0.07613        0.11979
C          3.16386       -1.33721        0.08731
C          4.13293       -1.34226       -1.09321
C          5.02152       -0.09942       -1.08110
C          4.20658        1.18893       -1.10618
C          3.11608        1.19901       -0.05768
O          2.80056        2.22017        0.54723
H          0.42372       -0.90894        0.36433
H          0.50352        0.94011        0.25734
H          2.51464       -2.21857        0.02547
H          3.72705       -1.42317        1.02493
H          3.57308       -1.38712       -2.03580
H          4.75936       -2.24058       -1.04868
H          5.69636       -0.12070       -1.94451
H          5.65049       -0.11543       -0.18205
H          3.72842        1.32447       -2.08307
H          4.87102        2.04207       -0.93236
