22

C          1.02719        0.18086        0.04233
C          2.51638        0.10294        0.01799
C          3.27971       -0.66830       -1.04110
C          2.60605       -1.42393       -2.13814
O          3.59533       -1.95178       -3.00948
C          3.36785        0.85656       -0.99611
C          2.69529        1.71165       -2.04256
C          4.66466        1.45149       -0.49810
H          0.63145       -0.53277        0.77241
H          0.56388       -0.04427       -0.92163
H          0.70992        1.18278        0.34836
H          2.89751        0.04832        1.03493
H          4.12604       -1.24204       -0.66995
H          1.91882       -0.82008       -2.73627
H          2.03903       -2.26419       -1.72402
H          4.12917       -1.19850       -3.31246
H          1.72677        1.32488       -2.36834
H          3.33578        1.79480       -2.92721
H          2.52588        2.72023       -1.65062
H          5.13628        0.82686        0.26829
H          4.48604        2.43913       -0.05913
H          5.37417        1.56334       -1.32444
