18

C          0.84733       -0.57281       -0.09528
C          2.10474       -1.22584        0.46257
C          3.33440       -1.21867       -0.44672
C          2.87158       -2.14589       -1.58185
O          2.04478       -3.14088       -0.89342
C          2.08592       -2.75336        0.50501
C          3.49954       -3.00671        0.97092
C          4.26530       -2.05126        0.41788
H          1.01544        0.49762       -0.25210
H          0.02359       -0.68429        0.61799
H          0.50988       -1.00223       -1.04235
H          2.31105       -0.78299        1.44833
H          3.72912       -0.24515       -0.73699
H          3.69089       -2.65882       -2.09674
H          2.24896       -1.63581       -2.32271
H          1.29857       -3.21766        1.10062
H          3.82215       -3.82753        1.59107
H          5.33650       -1.94822        0.49253
