16

C          1.20734       -0.09311       -0.03325
O          2.63445       -0.05859       -0.02577
C          3.21434       -0.89092       -0.93107
O          2.60530       -1.62145       -1.70149
C          4.71874       -0.81521       -0.87535
C          5.33339       -0.03798        0.03614
C          5.46702       -1.67771       -1.78417
C          6.67496       -1.42388       -2.30644
H          0.84857        0.59118        0.74068
H          0.84436       -1.09904        0.20026
H          0.82185        0.24489       -1.00013
H          4.78422        0.58533        0.73454
H          6.41416       -0.00289        0.12387
H          4.96104       -2.59901       -2.07463
H          7.22881       -0.51670       -2.08968
H          7.13521       -2.13276       -2.98858
