22

O          0.95731       -0.07582        0.07397
C          2.37750       -0.04007        0.05960
C          2.90722       -1.28791        0.75198
C          4.43385       -1.31776        0.77011
C          4.95806       -2.57449        1.46672
C          6.48478       -2.60504        1.48153
C          7.01555       -3.85301        2.17458
O          8.43681       -3.83672        2.17147
H          0.64689        0.73382       -0.36628
H          2.70880        0.86504        0.57851
H          2.71413        0.00203       -0.98116
H          2.51587       -2.17855        0.24450
H          2.51423       -1.32957        1.77557
H          4.81254       -0.42689        1.28580
H          4.81390       -1.28216       -0.25815
H          4.57818       -3.46546        0.95205
H          4.57965       -2.60933        2.49559
H          6.87818       -1.71474        1.98787
H          6.87413       -2.56361        0.45665
H          6.67759       -4.76423        1.67065
H          6.68113       -3.89242        3.21591
H          8.72738       -3.83598        1.24346
