18

O          1.64658        0.93304       -0.57540
C          2.45572       -0.05179        0.04500
C          2.99033        0.53477        1.30781
C          4.29535        0.64603        1.60322
C          4.81557        1.24250        2.88217
C          5.67724        2.47787        2.62007
C          6.19712        3.05213        3.92787
C          6.64308        3.54473        5.04970
H          1.33562        0.55142       -1.41271
H          3.25289       -0.34269       -0.64638
H          1.83867       -0.92731        0.26790
H          2.24279        0.89163        2.01294
H          5.04081        0.29051        0.89456
H          5.40677        0.47971        3.40441
H          3.98748        1.50422        3.55339
H          5.09586        3.25031        2.10290
H          6.53285        2.22402        1.98317
H          7.00691        3.94893        5.96617
