18

O          2.69626       -0.36849        1.92294
C          2.34068       -1.46562        1.09488
C          2.88357       -1.24268       -0.31126
C          4.40880       -1.30037       -0.32802
C          5.06566       -1.07540       -1.72655
C          6.14806       -0.26519       -0.97436
O          7.29343        0.04478       -1.21410
C          5.19240       -0.06421        0.22570
H          2.31614       -0.53888        2.80249
H          1.24817       -1.52925        1.06622
H          2.73751       -2.38558        1.53604
H          2.53906       -0.27662       -0.69790
H          2.48752       -2.02573       -0.96816
H          4.76503       -2.23977        0.12204
H          4.49102       -0.46322       -2.42851
H          5.42682       -1.97877       -2.22212
H          4.66235        0.89256        0.18472
H          5.65085       -0.20116        1.20660
