20

C          1.02071        0.08932       -0.09332
C          2.50156       -0.02567       -0.13210
C          3.23301       -1.13865       -0.14160
C          4.67899       -0.77196       -0.11789
C          5.49206       -1.51464       -1.17769
C          5.27014       -1.01448        1.27515
C          4.57529        0.73121       -0.43477
O          3.23141        1.15915       -0.11928
H          0.53954       -0.89325       -0.13099
H          0.66247        0.67422       -0.94609
H          0.70257        0.58847        0.82718
H          2.84491       -2.14636       -0.11852
H          5.50572       -2.59310       -0.98193
H          6.52937       -1.16270       -1.19378
H          5.07558       -1.36975       -2.18136
H          5.25172       -2.07960        1.53375
H          4.71426       -0.47615        2.05208
H          6.31162       -0.67667        1.32200
H          4.74470        0.94534       -1.49784
H          5.28057        1.33647        0.14521
