18

C          0.84393        0.00908        0.18396
C          2.36272       -0.00656        0.12784
C          3.27603        1.02066        0.97177
C          2.93680        0.01616        2.17007
C          3.27043       -1.01723        0.99884
C          4.75578       -0.79335        0.63057
O          5.06530       -0.02211       -0.52002
C          4.75984        0.77968        0.61049
H          0.45607        0.84148       -0.41288
H          0.43630        0.11700        1.19084
H          0.44247       -0.91767       -0.23869
H          2.62114       -0.02834       -0.94112
H          2.94275        2.05460        1.05913
H          1.92696        0.01890        2.58393
H          3.64386        0.02445        3.00627
H          2.93193       -2.04710        1.11027
H          5.48145       -1.29449        1.25248
H          5.48815        1.29227        1.21947
