14

C          2.54385       -0.34882       -2.41346
C          3.13374       -0.15457       -1.26701
C          3.82141        0.07188        0.06948
C          4.36770        1.45631        0.14236
C          5.62009        1.84367        0.30183
O          5.77576        3.20690        0.34748
C          4.41354        3.63754        0.13984
O          3.48879        2.53184        0.07846
H          2.06049       -0.50206       -3.35054
H          4.61777       -0.67156        0.18795
H          3.09815       -0.08588        0.87704
H          6.51667        1.25957        0.40756
H          4.36067        4.19570       -0.80234
H          4.12035        4.29827        0.96298
