16

O          2.80456       -1.25115       -0.45789
C          2.40887        0.06206       -0.08057
C          2.82314        1.05121       -1.11313
C          3.47429        0.84621       -2.27848
C          3.62457        2.14215       -2.90806
C          4.21101        2.37320       -4.08370
C          3.02777        3.13634       -2.04487
C          2.54973        2.48047       -0.97446
H          2.53878       -1.84051        0.26657
H          2.87570        0.29752        0.88124
H          1.32064        0.07052        0.04025
H          3.81504       -0.09927       -2.66829
H          4.63265        1.56284       -4.66914
H          4.28364        3.37485       -4.49271
H          2.98181        4.19634       -2.23327
H          2.04154        2.92550       -0.13303
