18

C          1.39766       -0.44375        0.36216
C          2.83799        0.01808        0.30508
C          3.78155       -0.78480       -0.66506
C          4.89867       -0.34475        0.34200
C          3.79109       -0.53151        1.43367
C          5.24560        1.09680        0.17059
C          4.19324        1.92101        0.07526
O          2.88305        1.47177        0.12670
H          1.32529       -1.50371        0.62751
H          0.90837       -0.30678       -0.60750
H          0.83464        0.12615        1.10821
H          3.86310       -0.40387       -1.68802
H          3.60112       -1.86580       -0.70919
H          5.76925       -0.99989        0.41498
H          3.61452       -1.57185        1.73398
H          3.88091        0.08010        2.33645
H          6.27239        1.43753        0.13402
H          4.24472        2.99444       -0.04607
