13

N          2.06179        0.13098       -0.64699
C          3.09995       -0.55818       -0.30453
C          3.01448       -1.60084        0.75117
C          4.05435       -1.51026        1.59995
C          5.19005       -2.28490        1.15622
C          5.69229       -2.02824       -0.06237
N          5.32674       -1.03641       -0.94169
N          4.27892       -0.34508       -0.98900
H          1.25466       -0.14944       -0.08396
H          2.74693       -2.55333        0.29526
H          4.36187       -0.53062        1.97462
H          5.58137       -3.07181        1.78972
H          6.53585       -2.62199       -0.40787
