18

C          1.41639       -0.31069       -0.14213
C          2.79798        0.11970        0.17726
O          3.60562       -0.86553        0.84353
C          4.00690       -0.47545       -0.47335
C          5.07598        0.57273       -0.53332
C          4.30548        1.89385       -0.36950
C          3.10285        1.54801        0.52474
O          3.46736        1.65399        1.89637
H          1.37490       -1.36657       -0.42957
H          1.01161        0.27945       -0.97038
H          0.76497       -0.17175        0.72648
H          3.92901       -1.15925       -1.30166
H          5.62288        0.54925       -1.48031
H          5.79186        0.43721        0.28511
H          3.94201        2.20975       -1.35554
H          4.93969        2.68439        0.04175
H          2.26644        2.22707        0.33455
H          3.85548        0.79277        2.14478
