20

C          0.01273        1.04811        1.80155
C         -0.76671        0.22576        0.81703
C          0.72629        0.33190        0.68954
O          1.46034       -0.83956        1.09125
C          2.88626       -0.68000        0.94446
C          3.57093        0.41398        1.80436
C          4.74958       -0.56004        1.98463
C          3.75078       -1.70317        1.72329
H          0.12395        0.66093        2.80752
H         -0.06296        2.12660        1.74196
H         -1.37456        0.74683        0.08795
H         -1.17949       -0.71826        1.15217
H          1.09834        0.92070       -0.14385
H          3.16554       -0.62662       -0.11686
H          3.04321        0.65112        2.73521
H          3.80910        1.34456        1.28242
H          5.22442       -0.55542        2.96860
H          5.52181       -0.46480        1.21267
H          3.27297       -2.09292        2.62978
H          4.14019       -2.54062        1.13855
