19

N          0.99492        0.03140        0.00311
C          2.45163       -0.01110        0.05107
C          3.21004       -0.79350       -0.98148
C          3.24486        0.71533       -1.00517
C          4.48648        1.46275       -0.62530
N          5.52122        1.20378       -1.59967
C          6.79028        1.65347       -1.47137
N          7.76921        1.33253       -2.23638
H          0.58952       -0.60893        0.68641
H          0.63554       -0.27073       -0.90214
H          2.86110       -0.00752        1.06104
H          2.66375       -1.29427       -1.77235
H          4.09684       -1.32854       -0.65753
H          2.70204        1.22091       -1.79625
H          4.83388        1.16473        0.37090
H          4.26803        2.53593       -0.59244
H          5.32266        0.50068       -2.29929
H          6.94733        2.34622       -0.62702
H          7.44126        0.69362       -2.96259
