22

C          0.82544       -0.08030       -0.06249
C          2.36396       -0.09516       -0.02954
C          2.83230       -0.43751        1.39592
C          2.85810       -1.20021       -0.98091
C          2.94966        1.26685       -0.50502
C          2.52546        2.46356        0.34190
C          3.09343        3.78067       -0.16111
C          3.58064        4.91050       -0.59259
H          0.41672       -1.06672        0.18298
H          0.45407        0.19661       -1.05488
H          0.40752        0.62493        0.66405
H          2.46168       -1.42119        1.70566
H          2.46814        0.28608        2.13221
H          3.92601       -0.46000        1.45752
H          2.44956       -2.17742       -0.69856
H          3.95069       -1.28000       -0.96110
H          2.55380       -0.99955       -2.01424
H          2.65245        1.44537       -1.54695
H          4.04774        1.20656       -0.51158
H          2.85495        2.34325        1.37902
H          1.43564        2.56707        0.35150
H          3.97889        5.83381       -0.94535
