20

C          1.02744       -0.12400       -0.05998
C          2.55132       -0.13717        0.00133
O          2.93488       -0.23791        1.37943
C          4.34873       -0.07500        1.57602
C          4.63649       -0.07292        3.07377
O          4.15191       -1.27602        3.66712
C          3.08254       -1.31931       -0.76281
C          3.92711       -1.22940       -1.80042
H          0.63466        0.76864        0.43843
H          0.60071       -0.98731        0.46374
H          0.66529       -0.12834       -1.09359
H          2.92481        0.80988       -0.40844
H          4.68818        0.86420        1.12695
H          4.87416       -0.91834        1.11635
H          4.13536        0.76495        3.56696
H          5.71238       -0.00490        3.25945
H          3.24273       -1.37889        3.32360
H          2.77406       -2.30244       -0.41412
H          4.27904       -0.27244       -2.17209
H          4.29770       -2.12337       -2.29135
