16

C          1.00101       -0.07727       -0.06347
C          2.52101       -0.07727       -0.06347
C          3.82486       -0.07727       -0.06347
C          5.34486       -0.07727       -0.06347
C          6.02506        0.72802       -0.92341
C          5.38842        1.66270       -1.92114
C          7.54506        0.72802       -0.92341
C          8.84892        0.72802       -0.92341
H          0.62780       -0.61220        0.81425
H          0.62793       -0.56987       -0.96568
H          0.62799        0.95040       -0.03912
H          5.84320       -0.73571        0.63952
H          4.29591        1.64710       -1.90439
H          5.70329        1.39771       -2.93639
H          5.70338        2.69305       -1.72293
H          9.91401        0.72803       -0.92342
