18

C          0.97007        0.06166       -0.10606
C          2.49228        0.07443       -0.01768
C          3.00532        1.23802        0.82110
C          4.32503        0.70138        1.29365
O          5.24726        1.40945        1.67849
C          4.37082       -0.80132        1.30387
C          3.04357       -1.18549        0.65978
O          3.22542       -2.21650       -0.30498
H          0.60149        0.97879       -0.57889
H          0.51350       -0.00818        0.88736
H          0.61962       -0.79040       -0.69707
H          2.89128        0.15401       -1.03864
H          2.37600        1.44290        1.69163
H          3.14041        2.14118        0.22151
H          4.40747       -1.14579        2.34344
H          5.24161       -1.16477        0.75487
H          2.35412       -1.56763        1.42065
H          3.86893       -1.91292       -0.97306
