18

C          0.85023       -0.01452        0.22060
C          2.35132        0.03708       -0.07886
C          3.07259        1.15120        0.72874
C          3.97952        0.02008        1.20008
O          3.02525       -0.97239        0.74870
C          2.63471       -0.11278       -1.56156
C          2.21931        0.86013       -2.62813
O          3.55905        0.83287       -2.11849
H          0.65413        0.00541        1.29836
H          0.40497       -0.93149       -0.18044
H          0.33278        0.84015       -0.22749
H          2.48345        1.61054        1.52907
H          3.57458        1.93844        0.16215
H          4.14498       -0.02974        2.27891
H          4.93187       -0.07813        0.66975
H          2.74974       -1.15726       -1.82425
H          1.59363        1.70092       -2.35636
H          2.06109        0.48351       -3.63063
