14

C          1.06422       -0.10189        0.05517
C          2.40556       -0.08956        0.05317
C          3.22295        1.17806        0.05105
C          4.43623        0.73035       -0.70448
O          5.29863        1.44446       -1.18022
C          4.47986       -0.77560       -0.74051
O          5.41402       -1.41615       -1.18408
C          3.24741       -1.33398       -0.09708
H          0.48678        0.81694        0.11056
H          0.50258       -1.03119        0.00094
H          3.51485        1.45989        1.06523
H          2.72779        1.99831       -0.47232
H          3.50508       -1.75352        0.87881
H          2.78226       -2.07620       -0.74972
