20

N          3.40389        0.71226       -0.70376
C          2.37002        0.01776        0.06713
C          2.88647       -0.88445        1.17382
C          1.85045       -1.62151        1.99896
N          0.45941       -1.39054        1.62812
C          4.20732       -1.03649        1.42109
C          4.80226       -1.89043        2.42580
C          6.12613       -2.00756        2.57790
H          2.94925        1.29553       -1.40393
H          3.93078        0.01540       -1.22831
H          1.77154       -0.57337       -0.63567
H          1.71973        0.78424        0.50395
H          1.96440       -1.34609        3.05451
H          2.03500       -2.69857        1.91254
H          0.18544       -0.46408        1.95380
H         -0.12307       -2.04121        2.15554
H          4.92302       -0.47722        0.81976
H          4.15399       -2.46720        3.07900
H          6.82873       -1.46449        1.95314
H          6.53828       -2.66370        3.33788
