19

C          1.08844        0.03984       -0.13992
N          2.50136       -0.01293        0.14312
C          3.03112       -0.48232        1.22234
N          2.43587       -1.04087        2.35569
N          1.05380       -1.08946        2.56281
C          4.55305       -0.40160        1.22433
C          5.22273        0.67461        0.42030
C          5.27621       -1.30683        1.90760
H          0.94745        0.48046       -1.13311
H          0.55437        0.68785        0.56050
H          0.63698       -0.95495       -0.17581
H          3.01459       -1.04381        3.19626
H          0.61367       -1.63646        1.82036
H          0.65087       -0.15203        2.51735
H          4.51791        1.39570       -0.00414
H          5.78908        0.23396       -0.40851
H          5.91517        1.24325        1.04951
H          4.82844       -2.12748        2.45404
H          6.36168       -1.26749        1.89550
