19

C          1.22099       -0.42538        0.99714
N          2.55809       -0.23563        0.44615
N          3.08696       -1.32320       -0.16376
C          4.30999       -1.15800       -0.55640
N          5.01711       -2.12178       -1.21485
C          6.47055       -2.11666       -1.13247
C          7.28520       -2.71347       -2.24559
C          7.30831       -1.23128       -2.00902
H          0.85175        0.51689        1.41263
H          1.23862       -1.16559        1.80341
H          0.52075       -0.75932        0.22492
H          2.53755        0.56549       -0.19117
H          4.87810       -0.22231       -0.39099
H          4.52884       -3.01260       -1.22097
H          6.82899       -2.29820       -0.12153
H          6.76868       -3.07406       -3.12765
H          8.16372       -3.28799       -1.97737
H          6.80638       -0.59594       -2.72910
H          8.20595       -0.79973       -1.58203
