16

C          1.32077        0.48594       -0.40807
C          2.41781       -0.07590        0.11066
C          3.13737        0.42067        1.23670
C          4.23910       -0.07643        1.81842
C          4.44301        0.88131        2.93702
C          4.24212        2.32428        2.33091
C          2.85455        1.60163        2.10278
O          3.07004        1.14094        3.54583
H          0.82710        0.03424       -1.26357
H          0.87628        1.39010       -0.00636
H          2.79910       -0.98795       -0.34627
H          4.82116       -0.94641        1.56954
H          5.22585        0.70305        3.67289
H          4.82668        2.58063        1.44367
H          4.24445        3.15319        3.04523
H          1.95542        2.20215        1.96871
