18

C          1.07440       -0.14385        0.07017
C          2.59020       -0.05924        0.02029
O          3.12437       -1.18464        0.71455
C          4.50841       -1.31546        0.79536
C          5.47042       -0.33168        0.19073
O          5.15369        0.67842       -0.42748
C          4.96528       -2.39307        1.45714
C          6.36127       -2.85044        1.73851
H          0.62244        0.70403       -0.45277
H          0.72070       -0.14860        1.10640
H          0.72289       -1.07189       -0.39250
H          2.90392        0.86945        0.50861
H          2.90627       -0.07724       -1.02811
H          6.53563       -0.55937        0.32820
H          4.20620       -3.06126        1.86753
H          7.14008       -2.20010        1.33937
H          6.51255       -3.84698        1.31169
H          6.51197       -2.92002        2.82049
