18

C          1.02634        0.11117       -0.00775
C          2.51548        0.16243        0.01093
C          3.32236       -0.62929       -0.98175
C          3.25482        0.86983       -1.09690
O          4.43407        1.58628       -0.67678
C          5.07588        2.33087       -1.62062
C          6.26957        3.01872       -1.03262
O          4.72317        2.45654       -2.78566
H          0.66464       -0.58968        0.75094
H          0.63642       -0.20951       -0.97941
H          0.61241        1.09927        0.21658
H          2.90287        0.26774        1.01780
H          2.80276       -1.21203       -1.73422
H          4.24786       -1.07755       -0.64143
H          2.65600        1.28687       -1.90314
H          6.52834        2.58777       -0.06142
H          6.04861        4.08120       -0.90532
H          7.12578        2.88495       -1.69897
