18

C         -1.55112       -0.01412        0.89557
C         -1.45874       -1.37926        0.18180
C         -0.24548       -0.82063       -0.59522
O          1.05457       -1.07365       -0.00036
C          1.95328        0.03671       -0.09755
C          1.33863        1.27709        0.55364
O          0.12224        1.66346       -0.10031
C         -0.83680        0.60082       -0.33216
H         -0.98401        0.03268        1.83130
H         -2.56587        0.34604        1.08334
H         -2.32077       -1.60838       -0.45581
H         -1.26208       -2.23589        0.83091
H         -0.23123       -1.10474       -1.65341
H          2.16489        0.21318       -1.15682
H          2.88346       -0.23701        0.40913
H          2.03225        2.12031        0.48707
H          1.11624        1.09615        1.60986
H         -1.54356        0.91089       -1.11255
