18

C          1.04513       -0.05208        0.07965
C          2.57701       -0.06643        0.03719
C          3.09585       -1.29007       -0.74308
C          3.39304       -0.73116       -2.09678
C          3.40863        0.60683       -2.08941
C          3.11905        1.15797       -0.72695
C          4.40711        1.66737       -0.11374
O          4.60527        2.84872        0.16113
H          0.66727       -0.93031        0.61378
H          0.61008       -0.05607       -0.92544
H          0.68212        0.83959        0.60182
H          2.94254       -0.09792        1.07122
H          2.36050       -2.09777       -0.79080
H          4.01719       -1.68004       -0.29766
H          3.59141       -1.34426       -2.96631
H          3.61585        1.22708       -2.95139
H          2.39394        1.97706       -0.76956
H          5.19230        0.91162        0.06700
