20

C          0.86959       -0.11372        0.08026
C          2.38881       -0.04971       -0.08934
C          2.79544        1.30342       -0.70168
C          3.82920        1.28877       -1.83065
C          5.10546        2.03629       -1.44189
C          4.16190       -0.07964       -2.31493
C          3.63844       -1.18681       -1.79024
O          2.75407       -1.25086       -0.77014
H          0.48889        0.73704        0.65261
H          0.57575       -1.03920        0.58692
H          0.37763       -0.12706       -0.90005
H          2.83959       -0.11765        0.90874
H          3.13249        1.95448        0.11910
H          1.90160        1.81654       -1.08072
H          3.39265        1.83154       -2.67905
H          5.62461        1.54290       -0.61333
H          4.87705        3.06361       -1.13917
H          5.79865        2.09196       -2.28985
H          4.84657       -0.17035       -3.15363
H          3.86644       -2.17799       -2.16288
