20

C          0.91512       -0.03104        0.08187
C          2.44699       -0.10380        0.12188
C          2.91682       -1.17823        1.11039
C          2.95298       -0.47503       -1.28053
O          3.03227        1.17669        0.41700
C          2.67676        1.76803        1.66109
C          3.36500        3.10760        1.78250
O          3.74386        3.58034        2.85290
H          0.47936       -0.97158       -0.27209
H          0.58170        0.77730       -0.57884
H          0.49335        0.17117        1.07166
H          2.54179       -2.16883        0.83043
H          2.57354       -0.97238        2.12895
H          4.01136       -1.21980        1.14706
H          2.54443       -1.43357       -1.61878
H          4.04698       -0.54263       -1.29718
H          2.67871        0.29457       -2.01143
H          2.99753        1.14453        2.49949
H          1.60175        1.95896        1.70401
H          3.41051        3.70630        0.85701
