16

O          1.57996        0.56720       -0.77508
C          2.44371       -0.11125        0.13063
C          2.85511        0.76676        1.27937
C          2.45061        2.03742        1.46601
C          2.89831        2.86205        2.63369
C          3.83940        2.11380        3.52565
C          4.18541        0.84945        3.25740
O          3.72583        0.13901        2.17077
H          1.38347       -0.06037       -1.48956
H          3.33032       -0.43703       -0.42291
H          1.91769       -0.99398        0.50841
H          1.77402        2.50521        0.75717
H          2.02130        3.17107        3.21290
H          3.39258        3.76797        2.26617
H          4.23735        2.61953        4.39828
H          4.85754        0.25442        3.85937
