19

C         -1.34345       -0.94855       -0.05210
C         -0.81657        0.12424        0.90741
C         -0.90995        1.31908       -0.04497
C          0.16372        0.73915       -0.96086
N          1.28674        0.82980       -0.00255
C          0.74335       -0.16488        0.94418
C          0.92763       -1.35297        0.00909
C         -0.12330       -0.81947       -0.96958
H         -2.28632       -0.68954       -0.54508
H         -1.45412       -1.93236        0.41589
H         -1.33138        0.23016        1.86194
H         -0.65108        2.27518        0.42468
H         -1.88376        1.42948       -0.53394
H          0.32662        1.22801       -1.92150
H          1.33807        1.75185        0.42804
H          1.23288       -0.21075        1.91713
H          0.67087       -2.31375        0.46776
H          1.92976       -1.43419       -0.43006
H         -0.17471       -1.31821       -1.93705
