20

C          0.91959        0.09399        0.08781
C          2.44066       -0.03511       -0.07741
C          3.13121        0.48111        1.18826
C          2.84948       -1.50526       -0.36283
C          2.74525       -1.66155       -1.88724
C          3.13930       -0.31323       -2.40275
O          2.09545        0.65707       -2.47230
C          2.93679        0.69331       -1.31302
H          0.56907       -0.47669        0.95482
H          0.37622       -0.27643       -0.78822
H          0.62953        1.14098        0.23053
H          2.84006       -0.10604        2.06616
H          2.86965        1.52855        1.37793
H          4.22200        0.43324        1.09641
H          2.23948       -2.23827        0.17360
H          3.89619       -1.66697       -0.07080
H          1.71972       -1.90716       -2.18609
H          3.40946       -2.45088       -2.25016
H          3.98956       -0.25902       -3.06141
H          3.63805        1.50106       -1.18044
