17

N          1.11286       -0.04358        0.03368
C          2.58196       -0.01527       -0.02901
C          3.20455        0.98309        1.00045
C          2.98485       -0.11185        2.09202
C          3.20933       -1.11061        0.90416
C          4.73923       -1.20391        0.58634
N          5.41226       -0.09787        0.48667
N          4.67322        1.03541        0.75285
H          0.67343        0.65309       -0.56808
H          0.69543        0.09013        0.95291
H          2.96355        0.02278       -1.05436
H          2.72486        1.95037        1.15888
H          1.98976       -0.13967        2.54847
H          3.71645       -0.14973        2.90669
H          2.70300       -2.07577        0.96865
H          5.19804       -2.19162        0.42941
H          5.01854        1.83163        0.21475
