16

C          1.13501        0.16784       -0.01375
C          2.33370        0.11953        0.00559
C          3.76650        0.03995        0.03148
C          4.44787       -0.72733       -1.06609
C          4.57140        0.77845       -1.02074
C          5.90809        1.44835       -0.72442
C          6.07749        2.94448       -0.62426
O          5.98773        2.12281        0.54217
H          0.07012        0.19740       -0.03053
H          4.20822       -0.02757        1.02199
H          3.84582       -1.15783       -1.85842
H          5.30880       -1.32662       -0.79316
H          3.98740        1.30795       -1.77450
H          6.78939        0.89173       -1.03212
H          5.23271        3.57984       -0.85706
H          7.04438        3.36631       -0.86827
