18

C          1.02256        0.07609       -0.02189
C          2.51221        0.07762        0.01882
C          3.29916       -0.73300       -0.97768
C          3.36668        0.77309       -1.01933
O          2.71173        1.39162       -2.13726
C          4.61924        1.48271       -0.59052
C          5.78047        1.16216       -1.49231
O          6.85041        0.71717       -1.08499
H          0.63066       -0.59806        0.74714
H          0.62879       -0.25941       -0.98600
H          0.63762        1.07977        0.18068
H          2.86665        0.09046        1.04519
H          2.77379       -1.24326       -1.77746
H          4.16323       -1.28074       -0.61423
H          1.80535        1.06702       -2.27340
H          4.89618        1.21781        0.43623
H          4.46326        2.56648       -0.61866
H          5.63188        1.38687       -2.56356
