18

C          1.05015        0.05021        0.03950
C          2.57455        0.05369        0.15542
C          3.20425        1.19727        0.98051
C          2.72836        0.79811        2.37037
C          2.72674       -0.55107        2.41235
C          3.20322       -1.03586        1.05141
C          4.65531       -0.59887        0.89189
C          4.65573        0.75115        0.84901
H          0.72464        0.88005       -0.59693
H          0.52914        0.15211        0.99597
H          0.71157       -0.88275       -0.42316
H          2.97427        0.01812       -0.87078
H          2.96067        2.20161        0.63650
H          2.49552        1.47428        3.17732
H          2.49250       -1.17557        3.25956
H          2.96047       -2.05961        0.77011
H          5.51416       -1.25072        0.87856
H          5.51470        1.40062        0.79463
