17

C          1.09025       -0.00913        0.02126
C          2.61679       -0.01295       -0.02152
O          3.09342        0.92677        0.94843
C          3.12346       -1.41257        0.28628
N          3.54379       -2.57368        0.54162
C          3.15391        0.31680       -1.39398
C          2.84826        1.65265       -2.04457
C          4.24883        1.34283       -1.60473
H          0.72829       -0.29803        1.01589
H          0.65727       -0.69772       -0.71228
H          0.69217        0.99309       -0.17248
H          2.92847        0.54719        1.82808
H          3.12942       -0.53657       -2.06744
H          2.29963        2.39987       -1.48198
H          2.64389        1.66561       -3.11027
H          4.63523        1.89580       -0.75467
H          4.99070        1.14361       -2.36922
