23

C          0.87774        0.00183        0.13464
C          2.38394        0.17841        0.13953
O          2.99033       -1.10390        0.28495
C          4.42530       -1.08140        0.19495
C          5.04565       -0.39744        1.41144
C          4.91974       -2.54614        0.11853
N          4.37009       -3.32228       -1.00485
C          4.87077       -2.87120       -2.29481
H          0.37287        0.97116        0.09571
H          0.54785       -0.53325        1.03159
H          0.56258       -0.59434       -0.72766
H          2.66235        0.82269        0.97861
H          2.70789        0.64368       -0.79771
H          4.72309       -0.54408       -0.71285
H          4.63829       -0.80686        2.34249
H          4.82773        0.67574        1.41247
H          6.13323       -0.51086        1.41836
H          4.60724       -3.06708        1.03262
H          6.01514       -2.58286        0.09592
H          3.35373       -3.20277       -0.98317
H          5.96499       -2.88125       -2.32478
H          4.51515       -1.86707       -2.54352
H          4.51475       -3.54858       -3.07758
