18

C         -2.23771        0.07525        0.00528
C         -1.39516       -1.22320       -0.00276
C          0.00174       -0.71867       -0.00383
C          1.23998       -1.20830       -0.00177
C          2.24221       -0.08383       -0.00300
C          1.39907        1.21430       -0.00971
C          0.00202        0.70990       -0.00567
C         -1.23479        1.19916       -0.00101
H         -2.86858        0.12519        0.89907
H         -2.88326        0.12694       -0.87778
H         -1.60881       -1.81710       -0.89736
H         -1.60546       -1.82726        0.88569
H          1.50015       -2.25619        0.00118
H          2.88296       -0.13731       -0.88950
H          2.87799       -0.13138        0.88738
H          1.60998        1.80778       -0.90521
H          1.61197        1.81896        0.87777
H         -1.49504        2.24706        0.00009
