15

C          3.07574        0.68597       -1.01724
N          2.40304       -0.01145        0.04683
C          3.01199       -0.68490        1.07434
N          2.46368       -1.32729        2.05445
O          1.06122       -1.27014        1.96726
C          0.52570       -1.99398        3.07164
C          4.46546       -0.74157        1.16080
N          5.62859       -0.75325        1.17862
H          2.34447        1.13186       -1.69754
H          3.70236        0.00045       -1.59657
H          3.70236        1.49071       -0.61981
H          1.38919       -0.02003        0.05993
H         -0.56531       -1.95832        3.01724
H          0.84773       -1.53899        4.01385
H          0.84773       -3.03947        3.03040
