19

C          1.03673       -0.04438        0.04716
C          2.56867       -0.00593        0.11256
C          3.04215        1.44904        0.12259
C          3.07894       -0.79308        1.33312
O          2.63375       -2.14479        1.25809
C          4.59554       -0.77892        1.42205
N          5.31148       -1.66698        0.80694
O          6.66336       -1.38988        1.04254
H          0.67123        0.50513       -0.82688
H          0.59275        0.40832        0.94035
H          0.66658       -1.07132       -0.03237
H          2.94527       -0.48428       -0.80148
H          2.71910        1.96529        1.03283
H          2.63721        1.99419       -0.73707
H          4.13281        1.51396        0.06214
H          2.68653       -0.36498        2.26175
H          3.22799       -2.58734        0.62086
H          5.05394        0.04712        1.99597
H          7.11519       -2.12479        0.58646
