20

C          1.11740        0.12137        0.18197
C          2.62647        0.15804        0.13009
N          3.23518        0.89774       -0.73929
N          3.30944       -0.61343        1.03044
C          4.75353       -0.74974        0.98285
C          5.23691       -1.68071        2.08752
C          6.75505       -1.78099        2.08986
O          7.17661       -2.67224        3.11391
H          0.67673        0.78071       -0.57030
H          0.78503        0.44346        1.17334
H          0.77171       -0.90133        0.00646
H          2.56203        1.39884       -1.32611
H          2.79669       -1.34765        1.50524
H          5.21446        0.23742        1.10818
H          5.05764       -1.14516        0.00685
H          4.80274       -2.68101        1.96119
H          4.88760       -1.33099        3.06734
H          7.22118       -0.80561        2.26371
H          7.12098       -2.16966        1.13440
H          6.94760       -2.26826        3.96858
