21

C          2.33253        1.26482       -0.54474
C          2.43716       -0.16183       -0.02926
C          2.99592       -1.09101       -1.06488
C          3.13737       -2.56565       -0.78464
O          2.62553       -3.05747        0.46289
C          2.11424       -2.09269       -1.78589
C          2.33438       -2.40656       -3.23207
N          1.25463       -1.82334       -4.01356
H          1.96560        1.92722        0.24686
H          1.64411        1.32617       -1.39242
H          3.30786        1.64057       -0.87422
H          1.44653       -0.49100        0.30456
H          3.09528       -0.17378        0.84754
H          3.81663       -0.63608       -1.61126
H          4.03535       -3.04680       -1.16175
H          1.76287       -2.67148        0.68968
H          1.07320       -2.18024       -1.49685
H          2.35226       -3.49131       -3.38209
H          3.29127       -2.00521       -3.58284
H          0.38352       -2.30289       -3.78973
H          1.42392       -2.01136       -5.00090
