17

C          2.20147        0.03882       -0.46179
N          1.83004       -0.11960        0.94749
C          0.76830       -0.08519       -0.03951
C         -0.20853        1.04602       -0.16749
C         -1.44856        0.19143       -0.51217
C         -1.02516       -0.87999       -1.57138
C         -0.14181       -1.24861       -0.31867
O         -1.43212       -0.98256        0.44731
H          2.67752       -0.81811       -0.92252
H          2.58733        1.00672       -0.75453
H          1.89606        0.76745        1.45074
H          0.03868        1.73764       -0.97915
H         -0.35437        1.58931        0.77081
H         -2.43132        0.65396       -0.61543
H         -0.48986       -0.51690       -2.45175
H         -1.78801       -1.61150       -1.85534
H          0.19925       -2.28013       -0.22229
