21

C          0.98866        0.06533        0.03952
N          2.44286        0.08367       -0.07581
C          2.91929        0.28439       -1.45934
C          2.41552        1.59298       -2.08504
C          4.47164        0.19667       -1.50342
O          4.91840        0.29388       -2.86662
C          5.18446        1.24560       -0.63211
O          6.60299        1.11388       -0.76784
H          0.71634       -0.21982        1.06041
H          0.54325       -0.67343       -0.63874
H          0.55168        1.05319       -0.14307
H          2.79853       -0.81400        0.26159
H          2.53856       -0.53326       -2.08486
H          2.69216        2.46586       -1.48125
H          1.32765        1.59255       -2.19375
H          2.82840        1.73345       -3.08875
H          4.78322       -0.79927       -1.16898
H          5.42514        1.12357       -2.94639
H          4.92940        1.14010        0.42650
H          4.94140        2.26146       -0.95188
H          6.82820        0.18574       -0.58065
