16

C          2.18778        0.03848       -0.33121
C          1.36248        1.19032        0.26968
C          0.00317        0.77060       -0.20078
N         -1.28175        1.07437        0.39533
N         -2.14170        0.04607        0.06610
C         -1.37692       -0.98064       -0.17396
C          0.08947       -0.71918        0.08171
O          1.27972       -1.08153       -0.55972
H          2.99027       -0.28168        0.34026
H          2.62023        0.31266       -1.29850
H          1.67855        2.17314       -0.08974
H          1.43484        1.18453        1.36339
H         -0.05887        0.95922       -1.28504
H         -1.65432        1.97801        0.09857
H         -1.74001       -1.97948       -0.44806
H          0.22370       -0.95062        1.15078
