17

C          0.98411       -0.09174        0.19194
C          2.45987       -0.05865        0.04335
C          3.26983        1.01377       -0.04746
C          4.68342        0.67531       -0.25729
N          5.43044       -0.04568        0.75467
C          4.71816       -0.84868       -0.23954
C          3.28332       -1.32411       -0.06144
O          3.16205       -2.07943        1.13264
H          0.55885        0.91698        0.18947
H          0.70040       -0.57718        1.13050
H          0.53312       -0.64725       -0.63654
H          2.93006        2.04114       -0.00723
H          5.23477        1.19968       -1.02725
H          4.94369       -0.03792        1.64923
H          5.29140       -1.37086       -0.99145
H          2.96714       -1.93407       -0.91276
H          3.27875       -1.45987        1.87007
