19

C          1.00018        0.06419       -0.09515
N          2.45141        0.09832        0.05679
C          3.16071       -0.73258       -0.90888
C          3.13618        0.77597       -1.04003
C          4.37756        1.55851       -0.73340
C          4.20019        3.04525       -0.93360
C          3.19056        3.76350       -0.07902
O          4.85126        3.65783       -1.78343
H          0.57828       -0.62777        0.64118
H          0.65522       -0.25275       -1.08638
H          0.58283        1.05598        0.10734
H          2.59056       -1.32123       -1.61873
H          4.06666       -1.20905       -0.55236
H          2.55976        1.18504       -1.86261
H          5.18454        1.22369       -1.39591
H          4.72251        1.39618        0.29488
H          2.85558        3.12722        0.74321
H          2.33121        4.04023       -0.69456
H          3.65242        4.65848        0.34570
