17

C          1.03352       -0.12055        0.18670
N          2.30956       -0.03747       -0.45536
C          3.50711        0.64699        0.05555
C          4.32308       -0.22127       -0.96007
C          4.58428        0.40215       -2.32625
O          5.52102       -0.85456       -0.44494
C          3.01539       -1.10419       -0.92265
O          2.69536       -2.23964       -1.18794
H          0.65919        0.89303        0.35335
H          1.13012       -0.65661        1.13521
H          0.34384       -0.66642       -0.46299
H          3.70076        0.44410        1.11412
H          3.49931        1.72461       -0.12473
H          5.65298        0.55729       -2.49996
H          4.09048        1.37534       -2.42326
H          4.20451       -0.24008       -3.12812
H          5.66174       -1.62068       -1.03038
