14

C          0.99384       -0.04969       -0.08965
N          2.42859       -0.05567       -0.09288
C          3.24621        1.09030       -0.09589
O          2.92838        2.26530       -0.09596
N          4.55948        0.58050       -0.09900
C          4.51763       -0.79064       -0.09797
C          3.22989       -1.16711       -0.09428
O          2.69593       -2.41153       -0.09202
H          0.61734        0.97694       -0.08778
H          0.63286       -0.56521        0.80505
H          0.62900       -0.56330       -0.98388
H          5.37706        1.17062       -0.10168
H          5.41412       -1.38866       -0.10002
H          3.43109       -3.04646       -0.09311
