20

C          0.92762        0.17169        0.31403
C          2.41668        0.06668       -0.03615
C          2.78161       -1.35565       -0.50294
C          2.49377       -1.34234       -1.97689
C          3.45917       -0.82021       -3.00823
N          4.88176       -0.64061       -2.69959
C          2.44566        0.10511       -2.39455
N          2.73223        0.93219       -1.19651
H          0.67626       -0.50570        1.13688
H          0.28477       -0.09071       -0.53472
H          0.66986        1.18990        0.62395
H          3.01092        0.35702        0.83678
H          2.19864       -2.12373        0.01549
H          3.84279       -1.55941       -0.31894
H          1.67938       -1.98588       -2.27612
H          3.26892       -1.14225       -4.02963
H          4.94955       -0.11529       -1.82285
H          5.30465       -0.02286       -3.39017
H          1.61355        0.42754       -3.01203
H          2.16236        1.77668       -1.17321
