17

C          0.98492       -0.00637       -0.01620
C          2.47936       -0.02588       -0.03603
C          3.17662       -0.83761       -0.84382
C          4.62083       -0.87624       -0.88242
C          5.28300       -1.70079       -1.70369
C          6.75829       -1.71939       -1.72192
N          7.40554       -2.51324       -2.51217
O          8.77948       -2.32536       -2.32563
H          0.62929        0.72696        0.71427
H          0.58575       -0.98455        0.26976
H          0.58556        0.27566       -0.99548
H          2.98751        0.65532        0.64227
H          2.63996       -1.50931       -1.51240
H          5.15880       -0.20627       -0.21513
H          4.78829       -2.38371       -2.38457
H          7.27658       -1.02800       -1.03372
H          9.16282       -2.96107       -2.95869
