13

C          1.08352        0.01557       -0.03343
C          2.58649       -0.05330        0.07764
O          3.16295       -1.14206        0.10568
C          3.33328        1.20045        0.15303
N          2.72583        2.39798        0.11949
O          3.73586        3.33920        0.21236
C          4.93244        2.71056        0.30061
C          4.73871        1.35615        0.26765
H          0.67472       -0.99783       -0.08809
H          0.79866        0.55294       -0.94195
H          0.66567        0.51080        0.84721
H          5.79668        3.35351        0.37869
H          5.48769        0.57948        0.31824
