12

C          1.25255        0.41153        0.47472
N          2.32923        0.01578       -0.11655
N          2.76563        0.81464       -1.11306
O          2.60088        2.20100       -1.07765
C          3.48409        2.71233       -1.99905
O          3.61172        3.88269       -2.30835
C          4.27841        1.59762       -2.55007
C          3.80631        0.51710       -1.93481
H          0.83193       -0.19294        1.29347
H          0.69798        1.32613        0.20556
H          5.07680        1.70081       -3.25868
H          4.14525       -0.50543       -2.01789
