17

C          1.01332       -0.16042        0.64582
C          2.52679       -0.24095        0.71350
O          2.92266       -1.51104        0.19096
C          4.27703       -1.70378        0.24973
C          4.79612       -2.92732        0.36484
N          6.14375       -3.15751        0.39918
C          6.72097       -4.39161        0.52189
O          7.93187       -4.56604        0.54275
H          0.65376        0.79479        1.03846
H          0.55832       -0.97358        1.22105
H          0.66840       -0.27073       -0.38771
H          2.85563       -0.14494        1.75486
H          2.96576        0.56747        0.11654
H          4.86944       -0.80268        0.16422
H          4.14107       -3.79272        0.43574
H          6.79649       -2.38588        0.32367
H          5.99837       -5.22133        0.60193
