14

C          1.03091       -0.07394        0.10564
C          2.54782       -0.01547        0.06646
N          3.02466        0.66598       -1.11324
N          3.22062        2.01675       -1.15080
C          3.53701        2.21448       -2.38337
O          3.55469        1.12895       -3.18174
C          3.19739        0.10655       -2.35517
O          3.05923       -1.05490       -2.69718
H          0.69191       -0.59999        1.00329
H          0.63485       -0.59994       -0.76990
H          0.59987        0.93254        0.11263
H          2.95113       -1.03376        0.06214
H          2.93594        0.50323        0.94965
H          3.79097        3.16057       -2.87600
