13

C          1.14947       -0.09047        0.00402
C          2.47962       -0.12007        0.08803
O          3.09985       -0.52374        1.23396
C          4.52629       -0.50134        1.17038
C          5.03295       -0.97748        2.52203
C          5.46756       -1.38592        3.68149
C          5.97629       -1.86699        5.04714
N          6.37068       -2.22945        6.07606
H          0.64687        0.22866       -0.90193
H          0.53420       -0.38797        0.84854
H          3.12252        0.16893       -0.73235
H          4.88499        0.51724        0.98394
H          4.88499       -1.17818        0.38670
