15

C         -1.61733        1.45878       -0.11165
C         -1.04213        0.10480       -0.29829
O         -1.03506       -0.97103        0.63597
N          0.11779       -1.78510        0.46139
C          1.24356       -1.29531        0.03054
C          1.75151        0.04841       -0.42936
C          1.06474        1.19656       -0.30043
C         -0.22782        1.23388        0.35444
H         -2.39908        1.56819        0.63119
H         -1.76451        2.07831       -0.98856
H         -0.93367       -0.16220       -1.34714
H          2.03967       -2.05877       -0.04561
H          2.72991        0.03707       -0.89627
H          1.48994        2.12892       -0.65973
H         -0.13486        1.24328        1.44054
