16

C          1.33289        0.65773       -0.69296
N          1.65833       -0.58231       -0.00848
N          0.86281       -1.65113        0.19744
C         -0.40394       -1.66448       -0.09868
C         -1.27907       -0.61405       -0.71803
C         -1.16704        0.76923       -0.17581
O         -0.45683        0.93651        1.05607
C          0.18044        1.42024       -0.13599
H          1.16413        0.45788       -1.75709
H          2.22014        1.30121       -0.65594
H          2.21955       -0.39691        0.82433
H         -0.91325       -2.62310        0.10538
H         -2.31441       -0.95059       -0.58152
H         -1.09619       -0.61697       -1.79851
H         -2.03565        1.38436       -0.36377
H          0.24346        2.48749       -0.29678
