19

C          2.81859        1.44737       -0.41339
C          2.47412        0.07127        0.16010
N          1.01558       -0.06097        0.24848
C          3.02800       -1.08828       -0.68610
C          4.55686       -1.09824       -0.76745
O          5.12592       -1.16746        0.53155
C          5.06546       -2.27084       -1.59009
C          5.50174       -3.27670       -2.29574
H          2.35406        2.24548        0.17713
H          2.47568        1.54902       -1.44814
H          3.89841        1.62734       -0.39411
H          2.87427        0.00321        1.17694
H          0.59539        0.08757       -0.66789
H          0.64420        0.67587        0.84609
H          2.60689       -1.05606       -1.69814
H          2.69191       -2.03417       -0.23729
H          4.92373       -0.18342       -1.24344
H          4.81050       -1.99483        0.93550
H          5.86314       -4.09799       -2.87064
