20

C          1.06535        0.19141        0.05749
C          2.56635        0.02899       -0.16068
C          2.82895       -0.92371       -1.32274
O          3.09469        1.32975       -0.49357
C          4.44237        1.50628       -0.43476
C          4.84098        2.76610       -1.14923
N          5.22870        0.67714        0.18351
N          6.55252        0.96230        0.16617
H          0.58383       -0.77209        0.25284
H          0.58830        0.65142       -0.81530
H          0.87159        0.85455        0.90722
H          3.01608       -0.34647        0.76599
H          2.43344       -0.51142       -2.25797
H          2.37395       -1.90260       -1.14703
H          3.90277       -1.06858       -1.47783
H          4.00352        3.15374       -1.73804
H          5.66611        2.55961       -1.83593
H          5.14084        3.52339       -0.42133
H          7.05259        0.31002        0.77562
H          6.75705        1.89763        0.52034
