18

C          1.41923       -0.21974        0.37600
C          2.82973        0.01885       -0.08249
C          3.48210       -1.13190       -0.83366
N          3.89081       -0.72231        0.50325
C          5.09063        0.11397        0.52965
C          4.62695        1.43448        0.04101
N          3.67404        2.26577        0.78493
C          3.17537        1.43102       -0.31011
H          1.26621       -1.24169        0.74306
H          0.72641       -0.05679       -0.45753
H          1.14617        0.46947        1.18087
H          4.13691       -0.92392       -1.66785
H          2.97338       -2.09028       -0.87677
H          5.87387       -0.29423       -0.11825
H          5.49465        0.18577        1.54491
H          5.34867        1.96355       -0.56583
H          3.72587        3.24212        0.49569
H          2.84606        1.93263       -1.20888
