18

C          1.45845        0.25378       -0.32370
C          2.84304       -0.23181        0.03060
C          3.58647        0.61185        1.05801
N          3.98085        0.61707       -0.35119
N          5.19550        0.00925       -0.45497
C          5.39224       -1.24081       -0.16076
C          4.35862       -2.18658        0.35829
C          3.01488       -1.71799       -0.13276
H          1.35197        1.33868       -0.20436
H          0.71983       -0.22311        0.33099
H          1.21068        0.00121       -1.35989
H          4.23592        0.15460        1.79317
H          3.15132        1.54551        1.39396
H          6.42204       -1.62735       -0.23494
H          4.41664       -2.19052        1.45179
H          4.57978       -3.19720        0.00733
H          2.21801       -2.26141        0.38603
H          2.91978       -1.95834       -1.20018
