17

C          1.04209       -0.00949       -0.09021
C          2.56209       -0.00949       -0.09021
C          3.86594       -0.00949       -0.09021
C          5.38594       -0.00949       -0.09021
N          5.87274        1.31103        0.27598
C          5.73864       -1.02576        0.95224
C          5.39174       -2.49205        0.79296
O          6.71336       -2.00105        0.54315
H          0.66893        0.82764       -0.68669
H          0.66905        0.08846        0.93305
H          0.66905       -0.94470       -0.51691
H          5.75862       -0.29418       -1.07997
H          5.40775        1.60963        1.13096
H          5.57191        1.96929       -0.44076
H          5.81094       -0.63227        1.95799
H          4.79536       -2.80057       -0.05623
H          5.23397       -3.07718        1.69042
