18

C          1.52435       -0.01009        1.25401
C          2.37089        0.09348       -0.00503
C          2.99303        1.47721       -0.14018
N          2.22213        2.53406       -0.16961
N          4.37309        1.63465       -0.22418
O          4.76002        2.97557       -0.03351
C          5.33508        0.74194       -0.63119
C          6.66045        0.92055       -0.69917
H          1.17528       -1.03790        1.39266
H          0.64362        0.63738        1.19961
H          2.09919        0.28209        2.13933
H          1.76305       -0.10403       -0.89356
H          3.14487       -0.67557        0.04946
H          1.23621        2.25420       -0.12975
H          3.89004        3.43387       -0.00949
H          4.93239       -0.20915       -0.96249
H          7.11803        1.85724       -0.40028
H          7.30908        0.13259       -1.06870
