16

C          1.01432        0.16842       -0.03554
C          2.53682        0.05142        0.01907
C          3.05501       -1.15721       -0.74972
C          3.46402       -0.48802       -2.02167
N          3.50638        0.80265       -1.98596
N          3.17920        1.15155       -0.71755
C          3.06924        0.07232        1.44412
O          2.36429        0.06612        2.44983
H          0.64504        0.18164       -1.06712
H          0.66704        1.08439        0.45657
H          0.54039       -0.67726        0.47567
H          2.29373       -1.91353       -0.95781
H          3.93748       -1.63402       -0.30951
H          3.71990       -1.08001       -2.91155
H          2.65832        2.03086       -0.67415
H          4.17037        0.06672        1.54090
