14

C          1.06702        0.07435       -0.02601
C          2.54783        0.09823       -0.03043
C          3.37428        1.11508       -0.09910
O          4.68502        0.73077       -0.07221
C          4.53682       -0.64001        0.03366
O          3.22692       -1.09846        0.05613
N          5.57526       -1.42053        0.08685
N          5.32196       -2.75125        0.21099
H          0.64986        1.08612       -0.04524
H          0.69651       -0.42762        0.87301
H          0.69251       -0.46466       -0.90176
H          3.18123        2.16984       -0.17071
H          6.11544       -3.29880       -0.12472
H          4.48721       -3.05024       -0.29640
