16

C          1.15635        0.06983        0.01616
N          2.58405       -0.07463       -0.21788
N          3.19166        0.96936       -0.84694
C          4.44545        1.12712       -0.57192
O          5.15786        0.34712        0.29495
C          6.38926        1.01565        0.49579
C          6.52908        1.87767       -0.72088
O          5.19075        2.13342       -1.10234
H          0.77714       -0.79975        0.56097
H          0.61287        0.13801       -0.93097
H          0.94639        0.96472        0.61064
H          3.06902       -0.34879        0.64086
H          7.21020        0.30007        0.59506
H          6.31745        1.60359        1.41635
H          7.03701        1.36149       -1.54235
H          7.05780        2.81126       -0.50753
