17

C         -0.51698        1.24069        0.96968
N         -1.73709        0.50103        0.55774
C         -0.95310       -0.18009       -0.50153
C         -0.45208       -1.48693       -0.03120
C          0.84323       -1.62913        0.27353
O          1.81258       -0.66908        0.17892
C          1.48820        0.48404       -0.61158
C          0.06559        0.96563       -0.43285
H          0.01125        0.77378        1.80952
H         -0.68530        2.29349        1.21413
H         -2.45928        1.11401        0.17755
H         -1.47541       -0.26834       -1.45942
H         -1.15238       -2.30099        0.11207
H          1.25130       -2.53887        0.69849
H          1.67337        0.22919       -1.66301
H          2.19608        1.27505       -0.34509
H         -0.16440        1.78090       -1.13417
