16

C         -0.44139        1.12981        1.21873
C          0.13860        1.35676       -0.16436
C          1.23116        0.55991       -0.77648
N          1.59682       -0.59778        0.00711
N          0.81806       -1.66903        0.23416
C         -0.45929       -1.67089        0.02171
O         -1.34188       -0.69234       -0.30610
C         -1.19835        0.70686       -0.00797
H         -0.80892        1.99548        1.75890
H         -0.02221        0.37224        1.86766
H          0.14020        2.37161       -0.54753
H          2.11745        1.19637       -0.88050
H          0.95582        0.25914       -1.79453
H          2.18962       -0.36730        0.80334
H         -1.01613       -2.61686        0.11201
H         -2.05724        1.31799       -0.27367
