13

C         -1.29622       -1.15500        0.19607
O         -2.05895        0.04149       -0.09544
N         -1.13636        1.13304       -0.09934
C          0.01807        0.58278       -0.20601
C          1.35232        1.10543       -0.03941
C          1.97470       -0.03878        0.24954
O          1.24495       -1.22952        0.23740
C          0.03605       -0.87082       -0.43220
H         -1.79426       -2.00840       -0.27148
H         -1.25236       -1.31363        1.27889
H          1.68219        2.12231       -0.01943
H          3.00094       -0.16829        0.55492
H          0.08271       -1.09879       -1.50293
