19

C          1.46808       -0.23483       -0.51996
C          2.83274        0.05681        0.03216
C          3.58692       -1.08603        0.65182
C          4.08327       -0.47993       -0.63575
C          5.08731        0.63933       -0.65852
O          5.99115        0.51412        0.43747
C          4.22151        1.90045       -0.47987
N          3.11644        1.46755        0.41376
H          1.38613       -1.26158       -0.89054
H          1.22618        0.44296       -1.34474
H          0.71627       -0.10063        0.26547
H          3.16462       -2.08522        0.59299
H          4.12289       -0.91421        1.57679
H          3.98681       -1.01452       -1.57028
H          5.66260        0.66445       -1.58702
H          5.46037        0.73007        1.22713
H          3.79811        2.20229       -1.44641
H          4.77177        2.73788       -0.04319
H          2.31066        2.07615        0.26529
