16

C          1.12463       -0.00829        0.13720
N          2.42345        0.05154       -0.50945
O          3.16557       -1.13138       -0.28701
C          4.23071       -1.18098       -1.24403
O          5.19095       -0.14743       -1.02971
C          4.56375        1.12065       -1.12747
C          3.21165        1.18758       -0.39749
N          2.84427        2.26768        0.21711
H          0.72376       -1.02731        0.10481
H          0.41790        0.63981       -0.39162
H          1.17854        0.30486        1.18495
H          3.83739       -1.14492       -2.26824
H          4.74371       -2.13866       -1.11571
H          4.38049        1.34805       -2.18557
H          5.24794        1.87815       -0.73296
H          3.58471        2.97565        0.18401
