16

C          1.06796       -0.16787       -0.00182
C          2.53174       -0.02062       -0.00733
C          3.40165        1.04349       -0.01493
N          4.69767        0.59092       -0.02316
C          4.57023       -0.72422       -0.00851
C          5.64109       -1.76615       -0.02273
N          6.53336       -1.66692        1.13874
O          3.27493       -1.16704       -0.00711
H          0.57473        0.80911       -0.00039
H          0.74020       -0.71600        0.88682
H          0.73448       -0.71591       -0.88790
H          3.16774        2.09895       -0.01758
H          6.23126       -1.64425       -0.93788
H          5.19768       -2.76692       -0.04553
H          6.87779       -0.70610        1.18414
H          7.34627       -2.25837        0.98251
