17

C          1.05704        0.06397        0.08039
C          2.56954        0.09388       -0.04603
C          3.02929        0.49357       -1.43669
O          2.24042        0.74090       -2.34773
C          4.52586        0.53473       -1.66387
C          4.87659        1.52700       -2.76728
C          6.32811        1.58687       -2.96607
N          7.47911        1.62745       -3.10863
H          0.76384       -0.20334        1.10016
H          0.62036       -0.66961       -0.60526
H          0.62308        1.04170       -0.15498
H          2.97948       -0.89533        0.18245
H          2.97864        0.81769        0.66703
H          4.86012       -0.47821       -1.91728
H          5.01710        0.82734       -0.72811
H          4.49873        2.52276       -2.50377
H          4.38922        1.24330       -3.70687
