17

C          1.57037        0.32881       -1.02496
C          0.59790        1.12787       -0.20128
N          0.72881       -0.31540       -0.01750
C          1.45848       -0.72133        1.19150
C          1.61671       -2.25756        1.25750
O          0.78941       -2.77877        2.32488
C          0.35321       -1.65223        2.98203
C          0.67392       -0.48783        2.43118
H          2.62784        0.46255       -0.83515
H          1.31012        0.12239       -2.05634
H         -0.32262        1.45347       -0.67064
H          0.98378        1.78758        0.56657
H          2.44734       -0.25026        1.26901
H          2.65588       -2.52798        1.48329
H          1.34385       -2.76172        0.32272
H         -0.23148       -1.83659        3.86561
H          0.39851        0.48232        2.81652
