17

C          3.40230        0.34057        1.09140
C          2.39560       -0.02617        0.00521
O          1.59067        1.12236       -0.24825
C          2.95584       -0.50615       -1.31648
C          1.91571       -0.89317       -2.34597
C          4.27345       -0.61382       -1.58608
C          4.78011       -1.10126       -2.93371
N          5.20042       -1.50563       -4.05167
H          2.87801        0.68329        1.99019
H          4.04507        1.17053        0.77560
H          4.03064       -0.51284        1.36500
H          1.73508       -0.80496        0.40535
H          2.15640        1.78926       -0.67347
H          0.89874       -0.78619       -1.95540
H          2.03426       -1.94132       -2.64381
H          1.99293       -0.25485       -3.23298
H          5.05308       -0.35945       -0.87873
