21

C          0.93819       -0.02845        0.02491
C          2.46705        0.04791        0.01275
C          2.96086        0.57197        1.36294
N          2.99212       -1.28970       -0.30875
C          4.45447       -1.31107       -0.43965
C          4.92916       -2.70535       -0.83355
C          6.43403       -2.76713       -0.92880
O          7.18380       -1.80775       -0.78666
H          0.50323        0.95356        0.24387
H          0.57738       -0.73098        0.78555
H          0.54852       -0.35090       -0.94692
H          2.76210        0.75458       -0.77407
H          2.76653       -0.14782        2.16596
H          2.45640        1.50884        1.62268
H          4.03454        0.78400        1.34542
H          2.57251       -1.60099       -1.18567
H          4.92610       -1.04487        0.51158
H          4.77792       -0.58274       -1.19259
H          4.52089       -3.00165       -1.80604
H          4.61612       -3.44592       -0.08861
H          6.84369       -3.76566       -1.15947
