17

C          1.69108        0.96000        0.86178
C          2.55096        0.12115       -0.07068
C          3.08891        0.93872       -1.20809
C          4.39785        1.11281       -1.44881
C          4.84903        1.93037       -2.60166
O          4.08552        2.48553       -3.38447
N          6.21061        2.00927       -2.71283
O          6.71525        2.77262       -3.78806
H          1.31222        0.34298        1.68293
H          0.83021        1.38373        0.33355
H          2.26557        1.78544        1.29555
H          1.95065       -0.69945       -0.47961
H          3.36598       -0.33404        0.50419
H          2.35307        1.39792       -1.86849
H          5.15135        0.66402       -0.81404
H          6.88625        1.57400       -2.09746
H          5.89185        3.08344       -4.22549
