19

C          1.09074        0.10827       -0.16869
N          2.55820        0.02573       -0.09380
C          3.07038        1.37051        0.23459
C          2.98626       -0.95884        0.94982
C          2.50941       -2.39830        0.68087
O          2.87600       -2.83262       -0.62901
C          4.50498       -1.02901        0.99737
O          5.16302       -0.68441        1.97649
H          0.78090        0.89626       -0.86602
H          0.63876        0.32053        0.80737
H          0.66222       -0.81935       -0.56008
H          2.73040        2.10320       -0.50697
H          4.16434        1.39924        0.20195
H          2.74039        1.70654        1.22416
H          2.63087       -0.64643        1.94033
H          1.42166       -2.48279        0.76998
H          2.95033       -3.09667        1.40086
H          2.66422       -2.09193       -1.22945
H          5.00515       -1.38541        0.07932
