15

C          1.22374        0.22872        0.00699
C          2.68084       -0.01962        0.00038
N          3.55506        0.99661       -0.00974
O          4.81274        0.41208       -0.01474
C          4.68826       -0.94551       -0.00774
C          5.93944       -1.72118       -0.01318
C          3.35400       -1.25611        0.00235
O          2.81834       -2.48754        0.01170
H          0.99506        1.29940        0.00685
H          0.76529       -0.21443        0.89687
H          0.75733       -0.21632       -0.87775
H          6.81762       -1.06803       -0.01621
H          5.98855       -2.35929       -0.90089
H          5.99582       -2.36086        0.87291
H          3.51544       -3.16535        0.01142
