16

C          0.10329       -1.22823        1.32501
C          1.03630       -0.92332        0.11384
C          0.18415       -1.95367       -0.67221
C         -0.97521       -1.55857        0.26652
N         -1.76531       -0.40208       -0.15397
C         -1.23341        0.78044       -0.16438
N          0.05240        1.21730        0.06144
O          1.04907        0.40205       -0.48587
H         -0.11101       -0.42406        2.02810
H          0.41916       -2.10081        1.90902
H          2.07389       -1.24039        0.27282
H          0.52924       -2.98727       -0.52285
H          0.05290       -1.78933       -1.73879
H         -1.63602       -2.39543        0.52141
H         -1.90546        1.62633       -0.33861
H          0.20401        2.18496       -0.20302
