12

C          1.21578        0.03217        1.36425
C          2.45090        0.08852        0.86164
O          3.19307       -1.03861        0.61034
C          4.53741       -0.96394        0.67523
N          5.24431       -1.82563       -0.04868
O          6.57340       -1.50494        0.24770
N          6.65005       -0.46218        1.17762
C          5.37912       -0.15306        1.43477
H          0.63963        0.93526        1.52872
H          0.75928       -0.91777        1.62380
H          2.92736        1.01804        0.57783
H          5.14598        0.61916        2.15149
