13

C          1.03639       -0.03420        0.10020
C          2.55910       -0.06283        0.06725
C          3.09598       -1.47592       -0.04561
O          2.40485       -2.49112       -0.03953
C          3.06576        0.76671       -1.10131
C          3.50037        1.47829       -2.10371
C          4.01045        2.31820       -3.28255
N          4.40320        2.95372       -4.16974
H          0.65196       -0.61143        0.94846
H          0.60762       -0.46296       -0.81321
H          0.66407        0.99192        0.19199
H          2.95334        0.36066        0.99798
H          4.19714       -1.55826       -0.08848
