15

C          0.93162       -0.14366        0.01797
C          2.26984       -0.11474        0.14244
C          2.94946       -1.14903        0.85390
N          3.51571       -1.98319        1.42645
C          3.03335        0.96294       -0.54254
C          2.69946        2.41538       -0.15979
O          4.11245        2.74486       -0.09572
C          4.42541        1.32906        0.00858
H          0.33619       -0.93078        0.47562
H          0.38808        0.60728       -0.54819
H          3.05172        0.80965       -1.63022
H          2.21932        2.57827        0.81115
H          2.18004        2.99210       -0.93028
H          4.64737        1.06582        1.04816
H          5.26729        1.04797       -0.63032
