19

C          2.95100        1.31167        0.61079
C          2.46517        0.03606       -0.06213
C          3.15019       -1.17264        0.50762
C          2.84304       -2.57456        0.02449
C          1.88773       -2.80029       -1.08099
O          0.70255       -3.00604       -0.85287
N          4.08787       -1.89471       -0.35358
C          5.26919       -2.34733        0.37421
H          2.51440        2.19129        0.12825
H          4.04180        1.39442        0.56111
H          2.66270        1.32488        1.66743
H          2.64545        0.11447       -1.14151
H          1.38230       -0.05272        0.07992
H          3.36483       -1.07524        1.56702
H          2.88979       -3.37554        0.75341
H          2.29270       -2.80133       -2.10667
H          5.91626       -2.90721       -0.30860
H          5.05197       -2.99440        1.23168
H          5.84298       -1.48569        0.73418
