18

C          0.95870       -0.02708        0.11506
N          2.40610        0.00568       -0.03801
C          3.01179        1.04987        0.82603
C          4.12182        0.03357        1.19103
C          3.06164       -1.02665        0.80651
O          5.31944        0.10567        0.37721
N          6.21418       -0.88907        0.79781
C          7.24334       -0.85512        0.02130
H          0.51382        0.82083       -0.41668
H          0.62221        0.01209        1.15758
H          0.55545       -0.93949       -0.33719
H          2.41534        1.37026        1.69038
H          3.34905        1.94004        0.28671
H          4.38158        0.05040        2.25792
H          2.47782       -1.38790        1.66394
H          3.43464       -1.89179        0.25151
H          8.07664       -1.55669        0.17914
H          7.34095       -0.14146       -0.81477
