21

C          1.09432        0.06829       -0.01463
C          2.61484       -0.02990       -0.05855
C          3.09533       -1.34379       -0.69090
O          2.56568       -1.44915       -2.02037
C          4.63211       -1.46378       -0.76535
N          5.27110       -1.50030        0.55456
C          6.72898       -1.59048        0.45775
C          6.05840       -0.31345        0.87990
H          0.78925        0.99952        0.47325
H          0.66356       -0.76607        0.54813
H          0.66383        0.06296       -1.02123
H          3.00107        0.06466        0.96249
H          2.99484        0.82119       -0.63623
H          2.69228       -2.19139       -0.12376
H          2.91891       -0.70575       -2.53923
H          5.02230       -0.66360       -1.41099
H          4.86501       -2.39754       -1.29518
H          7.18238       -1.63743       -0.52602
H          7.21368       -2.19148        1.21755
H          6.05437        0.52564        0.19561
H          6.10247       -0.04700        1.92947
