12

C          1.15132        0.04453       -0.06057
C          2.63299       -0.00056       -0.03864
N          3.37932       -1.05234       -0.02586
C          4.64253       -0.55216        0.00091
N          5.66703       -1.31412        0.01957
O          4.70516        0.79772        0.00669
C          3.44047        1.25774       -0.01593
O          3.01703        2.38939       -0.01832
H          0.74472       -0.96745       -0.13430
H          0.81398        0.62910       -0.92039
H          0.78710        0.51087        0.85850
H          5.30414       -2.27382        0.00989
