19

C          1.01945       -0.01258       -0.04480
C          2.50399        0.19870       -0.11677
C          3.39868       -0.53488       -1.17121
C          4.43445       -0.21599       -0.05251
C          4.52924        1.30893        0.03697
C          3.03502        1.63463        0.01076
O          2.66978        2.43567       -1.10161
N          3.30669       -0.63635        0.89085
H          0.51237        0.50109       -0.86798
H          0.60729        0.37327        0.89350
H          0.75986       -1.07476       -0.11268
H          3.55093       -0.05056       -2.13894
H          3.18242       -1.59743       -1.33838
H          5.34847       -0.80869       -0.00844
H          5.08408        1.73990       -0.80217
H          4.99555        1.62068        0.97728
H          2.70414        2.12758        0.93089
H          3.03280        2.04186       -1.91198
H          3.36231       -0.23585        1.82716
