15

C          0.91355        0.06078        0.05099
C          2.43069        0.05609        0.03652
C          3.12804        1.15350        0.89245
C          4.12276        0.04992        1.32004
O          5.22883        0.07099        1.81514
C          3.13030       -1.05698        0.89231
C          3.73983       -2.11886        0.13677
N          4.18798       -2.98571       -0.49242
H          0.52692        0.91717       -0.51104
H          0.51920        0.11740        1.07057
H          0.52243       -0.84979       -0.41408
H          2.78781        0.07996       -1.00444
H          2.54522        1.54134        1.73379
H          3.56850        1.97807        0.32895
H          2.53447       -1.40805        1.74342
