13

C          0.91483       -0.02784        0.04441
C          2.21869       -0.02784        0.04441
C          3.73869       -0.02784        0.04441
C          4.38464        1.14021        0.09706
C          5.84208        1.02349       -0.06252
N          6.54409       -0.05829        0.04984
O          5.81776       -1.18406        0.51335
C          4.49153       -1.32028       -0.02073
H         -0.15067       -0.02818        0.04567
H          3.91873        2.11276        0.13867
H          6.35473        1.95626       -0.34008
H          3.99129       -2.07318        0.59889
H          4.54400       -1.70214       -1.04490
