19

C          1.48506       -0.36750       -0.35580
C          2.94082       -0.05859       -0.37036
C          3.97469       -0.89961       -0.46383
C          3.95587       -2.37531       -0.63918
C          5.23780       -0.12394       -0.34547
N          5.85426       -0.33679        0.96485
C          4.69586        1.30222       -0.53299
O          3.28766        1.28256       -0.21057
H          1.28955       -1.43973       -0.44928
H          0.98049        0.14355       -1.18127
H          1.03912       -0.02670        0.58434
H          3.59879       -2.86827        0.27006
H          3.31226       -2.66176       -1.47734
H          4.95973       -2.75555       -0.85582
H          5.96007       -0.35999       -1.13369
H          6.01200       -1.33281        1.10362
H          5.18476       -0.05411        1.68255
H          4.79736        1.62325       -1.57795
H          5.20170        2.04207        0.09625
