16

C          0.92670        0.31208       -0.38121
C          2.42316        0.32256       -0.05518
C          2.02315       -0.66091        1.05163
C          2.82428       -1.92672        1.29444
N          2.52739       -2.21892        2.71418
N          2.09972       -1.09779        3.39657
C          1.82433       -0.19020        2.51532
O          0.76058       -0.93073        0.35380
H          0.66701        0.20854       -1.43649
H          0.33683        1.11424        0.07511
H          2.82475        1.28482        0.26727
H          3.05369       -0.10120       -0.84343
H          3.89966       -1.72883        1.21107
H          2.56544       -2.75669        0.63141
H          1.78874       -2.93003        2.76100
H          1.49082        0.82712        2.74545
