17

C          1.21202       -0.48005       -0.57167
C          2.57695        0.06260       -0.17432
O          3.55337       -0.97556       -0.27254
C          2.96215        1.28609       -1.02564
O          2.13600        2.04535       -1.52618
N          4.33606        1.44252       -1.12668
C          4.93438        2.45122       -1.82979
C          6.25962        2.55072       -1.94715
H          0.95151       -1.35431        0.03351
H          1.21347       -0.80495       -1.61860
H          0.42902        0.27573       -0.45378
H          2.55124        0.39013        0.87101
H          3.46456       -1.36783       -1.16008
H          4.90750        0.73296       -0.67336
H          4.27181        3.17734       -2.30002
H          6.94129        1.83988       -1.49309
H          6.69412        3.36596       -2.51760
