15

C          1.12829        0.14254        0.16015
C          2.61957       -0.06888       -0.04249
O          3.34570        1.04424        0.52876
C          4.32626        0.55141        1.34705
O          5.14988        1.23086        1.93602
N          4.22040       -0.80659        1.40911
C          3.18913       -1.26491        0.65939
C          2.79621       -2.53930        0.63844
H          0.82042        1.10797       -0.25572
H          0.86652        0.15955        1.22381
H          0.54643       -0.64556       -0.32852
H          2.86052       -0.09509       -1.11104
H          4.82987       -1.35638        1.99456
H          3.29996       -3.30244        1.22211
H          1.94427       -2.85327        0.04324
