19

C          0.87419        0.21316       -0.19322
C          2.35995        0.10610       -0.08482
O          2.83736        0.10705        1.27179
C          3.12269       -0.75499       -1.04455
C          3.24596        0.74858       -1.14075
N          4.51241        1.40075       -0.74088
C          5.59605        1.02880       -1.65170
C          4.95819        2.38514       -1.72288
H          0.39194       -0.51259        0.46965
H          0.52188        0.02012       -1.21255
H          0.54276        1.21458        0.09817
H          2.61479       -0.72293        1.72467
H          2.58748       -1.25800       -1.84030
H          3.97094       -1.31215       -0.66460
H          2.70357        1.23173       -1.95126
H          5.39471        0.31998       -2.44468
H          6.57373        0.94538       -1.19348
H          4.32839        2.61498       -2.57423
H          5.51234        3.22640       -1.32365
