19

C          1.08629       -0.75609       -0.44909
C          2.26761        0.00055        0.13791
C          2.95856        0.91014       -0.86815
C          2.16718        2.02409       -1.52613
C          3.14664        2.35656       -0.44663
N          4.04541        0.29941       -1.58025
C          3.93178       -0.38933       -2.75379
O          4.88058       -0.93005       -3.30703
H          0.70275       -1.47645        0.28097
H          1.36414       -1.30250       -1.35471
H          0.26876       -0.07367       -0.70266
H          2.99659       -0.72137        0.52691
H          1.91833        0.57587        1.00354
H          1.11294        2.13074       -1.29787
H          2.42150        2.31981       -2.53855
H          2.74974        2.68531        0.50732
H          4.05956        2.86699       -0.73278
H          4.97752        0.31934       -1.18149
H          2.90865       -0.41295       -3.15800
