15

C          0.90658       -0.02673       -0.00220
C          2.40828        0.02313        0.00637
O          3.06851        1.06201       -0.63777
C          2.60962        2.35237       -0.59918
C          3.27305        3.34022       -1.20152
C          3.11911       -0.98391        0.53552
C          4.63911       -0.98391        0.53552
N          5.90008       -0.98391        0.53552
H          0.45216        0.77771       -0.58558
H          0.52015        0.03481        1.02066
H          0.56183       -0.96748       -0.44599
H          1.69928        2.51956       -0.04175
H          4.20050        3.14500       -1.72652
H          2.91280        4.36459       -1.16142
H          2.65264       -1.83983        1.00770
