19

C          1.04931        0.06386        0.00440
C          2.56341        0.04768       -0.01878
C          3.29096        1.13503        0.80082
N          4.17849        0.07580        1.22949
C          3.26145       -0.99360        0.87978
C          5.47676        0.00509        1.62979
C          6.21056        1.31146        1.78098
O          6.04100       -1.06346        1.85835
H          0.66554        0.91718       -0.56414
H          0.66050        0.13376        1.02518
H          0.64897       -0.84872       -0.44901
H          2.92998        0.00473       -1.05496
H          2.73030        1.56925        1.63433
H          3.75372        1.92121        0.20066
H          2.69193       -1.35266        1.74201
H          3.71961       -1.83091        0.34798
H          5.58912        2.17699        1.54601
H          7.07174        1.31165        1.10632
H          6.55473        1.40718        2.81426
