17

C          0.91097       -0.00000        0.04111
C          2.38915        0.11523        0.04742
C          3.20683        1.22872        0.05023
C          4.55146        0.77983        0.05782
C          5.75469        1.54393        0.06420
C          5.83310        2.88150        0.06397
C          4.51707       -0.59732        0.05844
N          3.20343       -0.99103        0.05208
H          0.44147        0.98902        0.03951
H          0.56294       -0.53860        0.92821
H          0.57025       -0.53816       -0.84905
H          2.86042        2.25383        0.04761
H          6.69068        0.98800        0.07004
H          4.95191        3.51336        0.05848
H          6.79868        3.37589        0.06956
H          5.30836       -1.33494        0.06312
H          2.88444       -1.95115        0.05098
