19

C          1.04868        0.00936       -0.01635
C          2.57250        0.01717       -0.06666
O          3.05117       -1.02986        0.77230
C          3.09757       -0.10782       -1.52014
O          2.31225       -0.25573       -2.46005
N          4.47500       -0.05344       -1.71834
C          5.46902        0.08123       -0.66221
C          5.00245       -0.23233       -3.06164
H          0.69893        0.11679        1.01728
H          0.64805       -0.94056       -0.38778
H          0.62348        0.81998       -0.61702
H          2.92178        0.97318        0.33845
H          2.72487       -1.86399        0.38926
H          5.03971        0.32978        0.30703
H          6.16456        0.87991       -0.93795
H          6.01736       -0.86170       -0.57940
H          4.21396       -0.32181       -3.81280
H          5.61109       -1.14126       -3.08136
H          5.62820        0.62966       -3.31132
