18

C          0.90252       -0.10978       -0.04100
N          2.36073       -0.10002        0.00377
C          2.92146       -0.57359       -1.26996
C          4.46166       -0.58986       -1.28649
C          5.09989       -1.55206       -0.30901
C          5.29803       -2.69546       -1.22322
N          5.19921       -2.43000       -2.47995
O          4.89956       -1.04872       -2.58069
H          0.50897        0.27356        0.90503
H          0.51604       -1.12500       -0.17911
H          0.52297        0.53195       -0.84237
H          2.65998       -0.70327        0.76807
H          2.58326        0.07917       -2.08542
H          2.54097       -1.57596       -1.50550
H          4.84223        0.42649       -1.13405
H          4.48837       -1.82305        0.55219
H          6.08164       -1.21291        0.03183
H          5.55713       -3.68895       -0.83231
