17

C          1.06744        0.07323       -0.00947
C          2.58744        0.07323       -0.00947
C          3.89130        0.07323       -0.00947
C          5.33443        0.02618       -0.04976
N          5.92792        1.06965        0.81973
C          6.94789        0.09798        1.26727
C          6.01503       -1.05483        0.83775
O          6.62918       -2.18555        0.17556
H          0.69429        0.68711       -0.83393
H          0.69437        0.48029        0.93443
H          0.69434       -0.94774       -0.12884
H          5.73148        0.05727       -1.07262
H          5.29735        1.36616        1.56681
H          7.18253        0.14197        2.33440
H          7.88507        0.15940        0.70115
H          5.38688       -1.40902        1.66651
H          7.15400       -1.80488       -0.54972
