16

C          1.00708       -0.04589       -0.03467
N          2.46380       -0.03020       -0.11972
C          3.03201        1.00114        0.79334
C          4.14456       -0.02540        1.14280
O          5.34910        0.05685        0.33969
C          3.05801       -1.08315        0.77426
C          3.50747       -2.25324        0.04456
N          3.84219       -3.20610       -0.52924
H          0.59675        0.81370       -0.57491
H          0.62426       -0.01458        0.99244
H          0.61362       -0.94872       -0.51396
H          2.41248        1.28532        1.65383
H          3.37194        1.91074        0.28921
H          4.42096       -0.02942        2.20275
H          5.02648        0.09828       -0.58127
H          2.43935       -1.35090        1.64363
