19

C          0.96784        0.06971       -0.13474
C          2.45165        0.03194       -0.14923
C          3.24347       -1.04458       -0.14957
C          4.68012       -0.64490       -0.08906
C          5.36587       -1.04808        1.23534
O          4.79581       -0.37600        2.36043
N          4.66824        0.83962       -0.24053
C          3.26086        1.27556       -0.10311
H          0.53933       -0.93506       -0.18162
H          0.59229        0.63893       -0.99092
H          0.61153        0.54713        0.78309
H          2.90781       -2.07032       -0.14924
H          5.22495       -1.09416       -0.92647
H          6.42790       -0.78328        1.20487
H          5.28711       -2.12602        1.40683
H          4.66311        0.54075        2.05125
H          4.93969        1.03521       -1.20493
H          2.99719        1.96516       -0.91059
H          3.12963        1.79052        0.85462
