17

C          1.00973       -0.05264       -0.08315
C          2.52420        0.02288        0.02732
C          3.21401       -1.20741       -0.47398
C          4.13567       -0.94360       -1.40734
C          4.11510        0.50834       -1.63293
O          4.84732        1.09441       -2.40722
N          3.12506        1.02412       -0.82280
C          2.75671        2.41743       -0.78261
H          0.61673       -0.89674        0.49436
H          0.68116       -0.16550       -1.12225
H          0.55005        0.86055        0.31093
H          2.82172        0.22069        1.06362
H          2.99647       -2.19979       -0.10557
H          4.78819       -1.61737       -1.93249
H          3.42440        3.01141       -1.41120
H          2.80924        2.77406        0.24908
H          1.73399        2.52147       -1.15793
