18

C          3.08989       -0.30606        1.39117
C          2.50700        0.02978        0.02537
O          2.89822        1.35938       -0.32274
C          2.96163       -0.93974       -1.07017
O          4.39868       -0.85669       -1.20296
C          5.05813       -1.71283       -2.00593
N          4.36623       -2.57011       -2.78187
N          6.33940       -1.66322       -2.01431
H          2.73740        0.40935        2.14046
H          4.18455       -0.23915        1.38727
H          2.79984       -1.31251        1.70766
H          1.41311        0.01676        0.08546
H          3.85836        1.32608       -0.49798
H          2.51906       -0.63529       -2.02491
H          2.66504       -1.96501       -0.82250
H          3.51475       -2.21352       -3.19044
H          4.97679       -2.98114       -3.48054
H          6.60710       -0.93533       -1.34347
