15

C         -0.43763       -1.17891       -0.42596
N          0.82207       -1.30215       -1.11771
C          0.77033       -0.39228        0.04150
C          1.50690       -0.82619        1.29124
N          2.01089        0.01680        2.16606
C          2.58844       -0.76604        3.13365
C          2.43587       -2.10037        2.83987
N          1.75281       -2.12349        1.65689
H         -0.76479       -2.03549        0.14985
H         -1.23078       -0.64245       -0.93245
H          0.84187       -0.74679       -1.97541
H          0.76522        0.67535       -0.15071
H          3.08643       -0.32626        3.98798
H          2.75214       -3.00134        3.34459
H          1.49072       -2.93161        1.10973
