19

C          0.85227        0.13302       -0.09676
C          2.35392        0.13138        0.05037
C          2.86808        0.03649        1.48072
C          2.39358        1.09741        2.45228
N          2.31769        2.37409        1.98451
O          2.16835        0.85967        3.63536
C          3.14863       -0.62983       -0.99366
C          3.17221        0.87050       -0.99064
H          0.39353       -0.58738        0.58788
H          0.54366       -0.13453       -1.11378
H          0.44518        1.12561        0.12015
H          3.96614        0.05642        1.49771
H          2.55837       -0.93477        1.88256
H          2.40794        2.60216        1.00488
H          1.99677        3.08644        2.62505
H          2.61746       -1.13149       -1.79562
H          4.04968       -1.15123       -0.68691
H          2.65751        1.37699       -1.80079
H          4.09425        1.35648       -0.69054
