16

C          3.34125        1.27548       -0.39812
C          2.65456       -0.02452       -0.05066
N          1.35561       -0.08811        0.01702
N          3.39903       -1.16000        0.17331
O          2.66273       -2.25296        0.64243
C          4.83598       -1.30693        0.23339
C          5.34794       -0.94342        1.60201
O          6.16321       -0.04364        1.80435
H          2.61472        2.07467       -0.56696
H          3.93203        1.14117       -1.30830
H          4.00300        1.57021        0.42086
H          0.94112        0.82851       -0.19390
H          1.73400       -1.94912        0.49860
H          5.32470       -0.67615       -0.51463
H          5.12249       -2.34370        0.02698
H          4.97756       -1.56728        2.43247
