21

C          1.87821       -0.06309        0.82437
C          3.09072        0.53897        0.09637
C          3.23510       -0.13760       -1.28062
C          2.86098        2.04631       -0.10287
C          4.37227        0.33866        0.93319
O          4.60631       -1.04851        1.18669
N          5.79667       -1.17544        1.91555
C          6.03771       -2.42667        2.10505
H          1.90446       -1.15933        0.81373
H          0.93922        0.24836        0.35409
H          1.84372        0.26053        1.87198
H          3.71599       -1.11817       -1.20499
H          3.83807        0.47249       -1.96171
H          2.25764       -0.28930       -1.75183
H          3.73007        2.51923       -0.57458
H          2.68783        2.55007        0.85455
H          1.99215        2.23473       -0.74354
H          4.28061        0.85864        1.89607
H          5.23892        0.75154        0.40178
H          6.93012       -2.73540        2.66230
H          5.37681       -3.22756        1.73290
