17

C          2.17293       -1.37400        0.12639
N          2.43685        0.02230       -0.21348
C          3.04400        0.74905        0.93764
C          4.41137        0.24267        1.35831
C          2.95917        2.26435        0.65238
O          2.14266        2.46652        1.83959
C          2.07557        1.13342        2.10635
O          1.45038        0.57573        2.97753
H          1.71049       -1.86746       -0.73463
H          1.48560       -1.46754        0.97276
H          3.09396       -1.92259        0.34382
H          1.55336        0.43175       -0.52716
H          5.09356        0.18238        0.50326
H          4.35085       -0.74781        1.82010
H          4.86996        0.90819        2.09879
H          2.41801        2.58204       -0.24634
H          3.90097        2.82079        0.71389
