21

C          1.02785       -0.68494       -0.05532
C          2.54134       -0.75295        0.02146
O          2.93691       -0.36516        1.33874
C          4.29169       -0.43150        1.51425
C          4.82638       -0.65144        2.71917
C          6.30171       -0.70742        2.99206
C          6.71993       -2.07857        3.53411
N          8.15507       -2.12152        3.80822
H          0.67295       -0.98472       -1.04521
H          0.67764        0.33153        0.15297
H          0.57360       -1.33848        0.69685
H          2.97732       -0.07353       -0.72070
H          2.87523       -1.77749       -0.18262
H          4.88108       -0.26256        0.62237
H          4.16123       -0.78858        3.56883
H          6.54729        0.07267        3.72303
H          6.86966       -0.47953        2.08077
H          6.46896       -2.86488        2.81270
H          6.17828       -2.29807        4.46130
H          8.67303       -1.97848        2.94199
H          8.40505       -3.05288        4.13840
