19

C          0.93049        0.04403       -0.09753
C          2.42861       -0.09419        0.00853
C          3.04108       -1.04713        0.74311
C          2.40176       -2.15071        1.52418
N          3.25977       -3.32888        1.51068
C          3.18106        0.95909       -0.71016
C          4.12078        0.57223       -1.82520
O          2.91042        1.28847       -2.08372
H          0.38043       -0.67834        0.50896
H          0.60903       -0.08011       -1.13708
H          0.62499        1.04072        0.24018
H          4.12915       -1.01970        0.80204
H          1.42483       -2.43310        1.12262
H          2.26716       -1.82269        2.56043
H          3.28811       -3.70231        0.56304
H          2.82994       -4.05284        2.08300
H          3.47858        1.78712       -0.07317
H          4.16692       -0.46058       -2.14714
H          5.05249        1.11595       -1.91899
