17

C          0.94785        0.02917       -0.18558
C          2.45058       -0.03940       -0.03020
N          2.91214       -0.05524        1.37899
C          3.27756       -0.83085       -1.03036
O          2.56443       -1.53574       -2.06637
C          3.28083        0.67773       -1.08581
C          4.48444        1.37644       -0.72225
C          5.49148        1.96047       -0.42424
H          0.45683       -0.68452        0.48504
H          0.61279       -0.19135       -1.20367
H          0.59289        1.03418        0.06616
H          2.45716       -0.80595        1.89699
H          2.66787        0.81707        1.84513
H          4.16948       -1.32165       -0.64898
H          2.11907       -0.93600       -2.68739
H          2.73434        1.14109       -1.90123
H          6.38588        2.46841       -0.14913
