19

C          0.94989       -0.33029        0.25208
C          2.42039       -0.09342        0.17523
C          2.92823        1.32045        0.18515
C          2.61907        2.65577       -0.44067
C          3.67183        2.95565       -1.50872
C          4.49959        1.97656       -1.94481
C          4.34894        0.51998       -1.49236
N          2.97215        0.36356       -1.04043
H          0.60433       -0.22763        1.28526
H          0.70909       -1.34205       -0.08973
H          0.38474        0.37703       -0.36359
H          2.97370       -0.84587        0.72626
H          3.82306        1.42059        0.80471
H          2.67179        3.42874        0.33376
H          1.61361        2.68213       -0.87464
H          3.75290        3.97016       -1.88262
H          5.26995        2.19365       -2.67909
H          5.10351        0.26238       -0.74039
H          4.50934       -0.13328       -2.35611
