19

C          0.97224        0.04956       -0.09940
C          2.50212        0.08945       -0.04256
C          2.97803        0.06628        1.41165
O          3.00378       -1.08410       -0.70048
C          3.01131        1.33239       -0.80546
N          4.46056        1.40951       -0.84801
C          5.16754        2.41225       -0.24551
O          4.69235        3.34515        0.38551
H          0.58310       -0.84830        0.39412
H          0.62208        0.00905       -1.13691
H          0.53012        0.92792        0.38245
H          2.58202       -0.81206        1.93519
H          2.65906        0.96170        1.95431
H          4.06873       -0.01306        1.47283
H          2.66696       -1.85936       -0.21858
H          2.59835        2.24974       -0.37235
H          2.69531        1.27641       -1.85356
H          4.95171        0.64877       -1.30142
H          6.25460        2.29194       -0.38845
