16

C          0.94441        0.31667        0.11764
C          2.42838        0.00441        0.08057
C          2.88333       -0.52960        1.40993
N          3.32060        0.26055        2.33691
N          3.72854       -0.24274        3.57308
C          3.63215       -1.51665        3.75298
C          3.11367       -2.46132        2.71685
O          2.74232       -1.87358        1.48750
H          0.61520        0.72416       -0.84296
H          0.71595        1.04997        0.89831
H          0.35843       -0.58439        0.32741
H          2.99966        0.90959       -0.15277
H          2.64631       -0.73067       -0.70184
H          3.94238       -1.94723        4.71796
H          2.24469       -2.98085        3.13310
H          3.88528       -3.21397        2.52608
