18

C          1.13883       -0.13118        0.08333
C          2.63478       -0.01478       -0.04035
C          3.16940        0.76637       -1.20878
C          3.41210       -0.55124        0.92269
N          4.78196       -0.61571        1.07037
O          5.61913       -0.34650       -0.01509
C          5.46907       -0.98686        2.20455
N          6.74423       -1.13229        2.34538
H          0.62070        0.42232       -0.70839
H          0.79900        0.27609        1.03962
H          0.82890       -1.17766        0.00754
H          2.36987        1.28669       -1.74372
H          3.66945        0.10808       -1.92313
H          3.87247        1.53771       -0.86813
H          2.91665       -1.03991        1.76106
H          5.31569       -0.99394       -0.67826
H          4.81124       -1.16550        3.07256
H          7.15976       -0.89788        1.43471
