21

C          0.92555       -0.10405        0.16279
C          2.44008       -0.10054        0.02493
O          2.78444       -0.12715       -1.37865
C          3.17423        0.98518        0.85616
C          4.22187       -0.08264        1.26029
C          5.50694       -0.08391        0.43452
N          6.39850       -1.14866        0.88712
C          3.16703       -1.16059        0.89684
H          0.48608        0.75972       -0.34765
H          0.61359       -0.06479        1.21182
H          0.49845       -1.01022       -0.27991
H          2.43448        0.70258       -1.74542
H          2.59716        1.37157        1.70514
H          3.56068        1.83789        0.28975
H          4.44881       -0.04438        2.33433
H          6.02124        0.87743        0.54232
H          5.29768       -0.22415       -0.63087
H          6.73203       -0.93786        1.82638
H          7.22504       -1.16710        0.29071
H          2.58835       -1.51162        1.76014
H          3.54287       -2.03626        0.35914
