18

C          1.10282        0.07206       -0.17187
N          2.54935        0.13469       -0.06977
C          3.15938       -0.28890        0.99368
C          2.38999       -0.87632        2.21328
O          3.10114       -1.83477        2.98362
N          4.54459       -0.13447        1.11851
C          5.35659        0.41411        0.04333
O          5.21094       -1.18987        1.76047
H          0.80235        0.44800       -1.15523
H          0.62353        0.70789        0.57921
H          0.72707       -0.95226       -0.09685
H          1.45495       -1.34520        1.90351
H          2.14305       -0.03712        2.87078
H          3.18180       -2.62421        2.41460
H          4.79714        1.11275       -0.58673
H          5.75790       -0.38299       -0.59114
H          6.19605        0.96959        0.47368
H          4.79987       -1.21557        2.65162
