16

C          0.97295        0.00606        0.13014
C          2.48203        0.15295        0.24440
N          2.83167        1.14766        1.24387
O          2.36458        2.43412        0.95971
C          3.34522        3.27682        1.56330
O          4.43088        2.50590        2.04132
C          4.09683        1.23435        1.74408
N          4.96891        0.31427        1.93441
H          0.72222       -0.77325       -0.59634
H          0.50457        0.93864       -0.20133
H          0.53083       -0.26768        1.09388
H          2.90449        0.43567       -0.72643
H          2.90534       -0.82010        0.51832
H          2.89071        3.82725        2.39247
H          3.70781        3.98827        0.81463
H          5.79666        0.78087        2.32116
