21

C          1.00980        0.10635       -0.15821
C          2.52620       -0.07752       -0.08701
C          2.90468       -1.51290        0.33455
N          2.39824       -1.88715        1.65830
O          3.01419        0.19622       -1.41094
C          4.32102        0.60792       -1.57137
C          4.94575        1.55123       -0.58670
C          4.96444        0.24190       -2.68787
H          0.53462       -0.03527        0.81584
H          0.56482       -0.59337       -0.87420
H          0.76862        1.11475       -0.51496
H          2.91313        0.64018        0.64326
H          3.99541       -1.62098        0.32975
H          2.52687       -2.22662       -0.40722
H          2.79282       -1.26962        2.36634
H          2.71849       -2.82758        1.88698
H          4.19793        2.18705       -0.10218
H          5.64919        2.22863       -1.08159
H          5.49070        0.99443        0.18185
H          4.48161       -0.40050       -3.41423
H          5.97337        0.57147       -2.90115
