15

C          1.00198        0.11564       -0.09144
C          2.46551       -0.03468       -0.09273
C          3.26697       -1.10430       -0.09308
C          4.64922       -0.68932       -0.09436
C          5.74012       -1.46380       -0.09549
O          5.78356       -2.83296       -0.09566
N          4.68734        0.68523       -0.09498
C          3.44388        1.05215       -0.09393
H          0.50495       -0.85992       -0.08984
H          0.67001        0.66185       -0.97950
H          0.67169        0.66389        0.79599
H          2.92982       -2.12768       -0.09244
H          6.74070       -1.04810       -0.09698
H          4.87622       -3.17760       -0.09517
H          3.10188        2.09754       -0.09390
