21

C          1.02366        0.12086       -0.12322
C          2.54451        0.08257       -0.13522
N          3.05729        0.46206        1.17538
C          4.52402        0.39770        1.23392
C          5.03178        0.73914        2.65822
O          4.51197       -0.22054        3.58489
C          6.53788        0.76360        2.73690
C          7.27576        0.38567        3.79279
H          0.63264       -0.11096       -1.11929
H          0.65276        1.11146        0.16117
H          0.61455       -0.61329        0.57908
H          2.91047        0.78075       -0.89617
H          2.87628       -0.92543       -0.40869
H          2.67565       -0.13804        1.91013
H          4.95164        1.10362        0.51054
H          4.85369       -0.61486        0.96586
H          4.65139        1.72558        2.94908
H          4.96641       -1.05953        3.39784
H          7.05877        1.15731        1.86583
H          6.81576        0.03690        4.71283
H          8.35835        0.45853        3.77178
