20

C          2.78142        0.46342       -3.61120
N          2.45128        0.67294       -2.20667
C          3.05985       -0.32851       -1.32706
C          4.55367       -0.27332       -1.36272
C          5.36331        0.91489       -0.90123
N          4.71192        2.13304       -0.41052
C          5.34602       -0.35274       -0.08168
O          6.50712       -1.19745       -0.14633
H          2.24437        1.19696       -4.22051
H          2.49088       -0.53560       -3.95060
H          3.84854        0.61405       -3.80271
H          1.43866        0.61520       -2.10133
H          2.71720       -1.33471       -1.59746
H          2.69654       -0.14529       -0.30887
H          4.93982       -0.83507       -2.20632
H          6.26412        1.12070       -1.47507
H          3.87125        1.90388        0.12033
H          4.34442        2.65183       -1.21336
H          4.80870       -0.33236        0.86058
H          7.19947       -0.82134       -0.71765
