16

C          1.14836        0.30586        0.29671
N          2.58981        0.20274        0.07782
C          3.21484       -0.31727        1.07773
N          4.57725       -0.52390        1.10507
O          5.25270        0.21362        0.11751
C          5.32752       -0.62070        2.34797
C          5.07133       -1.96583        2.97677
O          4.62217       -2.11359        4.11010
H          0.73257        1.04198       -0.39806
H          0.90053        0.63791        1.31129
H          0.66394       -0.65590        0.10045
H          2.70734       -0.65587        2.00104
H          4.54449        0.38974       -0.54384
H          5.04007        0.17661        3.04138
H          6.40445       -0.54784        2.16204
H          5.34308       -2.83834        2.35920
