15

C          1.19098        0.07710        0.39336
C          2.67552        0.20951        0.61734
C          3.46525       -0.87739        0.60211
C          4.34300       -0.76013       -0.60268
O          4.33765        0.62804       -0.96820
C          3.35875        1.29260       -0.15814
C          4.07877       -1.32114        1.82315
N          4.62209       -1.64023        2.78991
H          0.88556       -0.97345        0.32640
H          0.89878        0.54299       -0.55678
H          0.62513        0.55479        1.19543
H          3.89942       -1.32801       -1.43068
H          5.37157       -1.09681       -0.45872
H          2.69888        1.87976       -0.80064
H          3.87731        1.97460        0.52676
