17

C          1.04119        1.46225       -0.21951
N          2.18904        0.52656       -0.09881
C          1.62616       -0.84619       -0.01098
C          0.16340       -0.58275        0.02341
N         -0.82949       -1.34347       -0.29496
N         -1.90994       -0.50881       -0.33742
C         -1.53424        0.90199       -0.15252
C         -0.15220        0.79573        0.43926
H          0.85936        1.67256       -1.28045
H          1.27849        2.41693        0.26622
H          2.70787        0.72557        0.75708
H          1.93640       -1.33137        0.91843
H          1.89880       -1.45294       -0.87518
H         -2.65129       -0.81421        0.29526
H         -2.22900        1.41600        0.51845
H         -1.53756        1.42144       -1.11670
H         -0.13331        0.84902        1.53183
