14

C          1.67145       -0.75086        0.04469
C          3.12188       -0.37319        0.25314
O          3.31633        0.41878        1.44631
C          4.15670       -0.50750        1.95007
N          5.42016       -0.25833        2.26472
N          6.08014       -1.17086        1.50798
C          5.26060       -1.84634        0.63047
C          3.99375       -1.38988        0.89361
H          1.11679        0.10014       -0.36691
H          1.17826       -1.05274        0.97555
H          1.58485       -1.57446       -0.67080
H          3.56363        0.09295       -0.63776
H          7.09284       -1.20193        1.56843
H          5.66663       -2.49885       -0.12940
