18

C          0.94902        0.05585        0.12743
C          2.40797        0.20300       -0.13716
C          3.14938       -0.50066       -1.24842
C          2.54277       -1.44724       -2.23316
N          1.95181       -2.59109       -1.55125
N          2.78055        0.88287       -1.33206
C          3.72941        1.88947       -1.32735
O          4.92454        1.77228       -1.08699
H          0.78121       -0.66678        0.93210
H          0.38554       -0.27172       -0.75461
H          0.53304        1.01694        0.44633
H          2.96068        0.48146        0.75069
H          4.20743       -0.70209       -1.08751
H          3.31426       -1.79795       -2.92469
H          1.77344       -0.94856       -2.83441
H          2.68773       -3.15259       -1.12555
H          1.50690       -3.19224       -2.24480
H          3.26603        2.85688       -1.57220
