19

C          1.44655       -0.82368       -0.54276
N          2.60353       -0.05759       -0.09512
C          2.98519       -0.35527        1.31342
C          3.50986       -1.73998        1.63250
C          4.46432       -0.58287        1.59132
C          5.13368       -0.15030        2.85093
C          2.16698        0.39960        2.32476
O          1.73525        1.52492        2.08893
H          1.21837       -0.56467       -1.58180
H          0.56064       -0.61137        0.06338
H          1.64459       -1.89884       -0.51383
H          2.36867        0.94004       -0.14874
H          3.58589       -2.46779        0.83214
H          3.26060       -2.17861        2.59226
H          5.13917       -0.51015        0.74421
H          4.51110       -0.31482        3.73491
H          5.38513        0.91254        2.79967
H          6.06412       -0.71054        2.98780
H          1.97955       -0.10342        3.28664
