14

C          1.22676        0.01065       -0.00659
N          2.68162       -0.10639        0.05189
C          3.36767       -0.81187       -1.03993
C          2.57947       -1.52781       -2.06455
O          2.20832       -0.97079       -3.09012
C          3.34479        0.70045       -0.98765
C          4.57655        1.37947       -0.68895
N          5.57887        1.91780       -0.46549
H          0.78842       -0.66290        0.73628
H          0.76911       -0.22243       -0.97225
H          0.92465        1.02881        0.26237
H          4.27557       -1.32064       -0.73769
H          2.34891       -2.58494       -1.85425
H          2.70488        1.21734       -1.69710
