18

C          0.96317        0.10638       -0.11121
C          2.48069        0.02831       -0.03645
C          2.87054       -1.34372        0.48382
O          3.00787       -1.59952        1.67917
N          3.04751        0.15167       -1.38029
C          3.36902        1.30104       -1.86886
C          3.20145        2.64319       -1.19435
N          3.91412        1.31558       -3.12049
H          0.51718       -0.00967        0.88273
H          0.55375       -0.68568       -0.74931
H          0.63400        1.06581       -0.52283
H          2.89169        0.75755        0.66841
H          2.93236       -2.14642       -0.27050
H          2.64528        2.59884       -0.25933
H          2.66517        3.31641       -1.87074
H          4.19166        3.06523       -0.99877
H          3.77518        0.45338       -3.63613
H          3.82263        2.15819       -3.67400
