17

C          1.12289       -1.36380        0.61124
C          2.61341       -1.50537        0.76134
O          3.13629       -1.98985        1.75823
N          3.31943       -1.03474       -0.32168
C          4.76917       -1.12111       -0.39437
C          5.27430       -2.47361       -0.90644
C          4.79827       -2.72743       -2.32748
C          4.38994       -2.94515       -3.54646
H          0.62829       -1.69021        1.53005
H          0.77169       -1.98173       -0.21941
H          0.86395       -0.31581        0.42924
H          2.81612       -0.81070       -1.17157
H          5.17976       -0.93458        0.60392
H          5.09963       -0.31212       -1.05400
H          4.91931       -3.28750       -0.26455
H          6.36959       -2.48626       -0.89369
H          4.06076       -3.13081       -4.54311
