15

C          1.09626        0.09199       -0.08239
N          2.54062        0.05769       -0.07725
C          3.36786        1.15819       -0.07433
C          4.65738        0.68621       -0.06831
O          5.76079        1.44720       -0.06339
C          4.60576       -0.71408       -0.06812
O          5.63607       -1.56876       -0.06307
C          3.28976       -1.09428       -0.07393
H          0.75451        1.12998       -0.08352
H          0.73709       -0.41802        0.81505
H          0.74338       -0.41801       -0.98231
H          2.96454        2.16128       -0.07655
H          5.50970        2.38652       -0.06439
H          6.45620       -1.04183       -0.05920
H          2.83099       -2.07342       -0.07565
