19

C          0.97796       -0.01458       -0.07612
C          2.50703       -0.01997       -0.12701
C          2.99471       -1.45697       -0.41727
O          4.41768       -1.50743       -0.45780
N          3.05626        0.89576       -1.15127
C          2.75983        2.29992       -0.85545
C          3.33540        3.16835       -1.88929
C          3.76930        3.91327       -2.72712
H          0.61452       -0.75128        0.64803
H          0.54813       -0.26217       -1.05306
H          0.58225        0.95686        0.23453
H          2.91198        0.27650        0.84917
H          2.61503       -1.82028       -1.37864
H          2.65466       -2.14469        0.36419
H          4.68459       -0.72200       -0.97507
H          2.66144        0.67117       -2.06432
H          3.16744        2.57769        0.12331
H          1.68123        2.47779       -0.83443
H          4.14208        4.58708       -3.46395
