18

C          1.01464       -0.11234       -0.00763
C          2.51446        0.11943        0.18567
C          2.98122        1.45621       -0.40335
C          3.82910        1.33608       -1.66101
O          5.15272        1.80736       -1.41341
C          3.90693       -0.05869       -2.23305
N          3.63578       -1.15093       -1.58991
N          3.31109       -1.00921       -0.28892
H          0.44324        0.70708        0.44372
H          0.69502       -1.03688        0.48649
H          0.74223       -0.17504       -1.06643
H          2.67236        0.17186        1.27045
H          3.53922        2.00829        0.36956
H          2.10752        2.07803       -0.63656
H          3.41672        1.98018       -2.44723
H          5.51799        1.24152       -0.70649
H          4.26341       -0.14182       -3.27420
H          2.92579       -1.88961        0.06535
