15

C          1.44822       -0.23900       -0.38571
C          2.84056        0.00488        0.07095
C          3.68526       -1.09777        0.64066
C          4.04771       -0.50293       -0.69254
N          4.89942        0.63240       -0.79745
C          4.38910        1.72563       -0.13215
O          4.93866        2.80740       -0.01225
O          3.16620        1.38608        0.40688
H          1.30993       -1.26567       -0.74070
H          1.18090        0.44068       -1.20053
H          0.75041       -0.07243        0.44113
H          3.28368       -2.10475        0.64801
H          4.30346       -0.87043        1.50109
H          3.88920       -1.06967       -1.60090
H          5.84166        0.64044       -1.15677
