15

C          0.96291       -0.02478        0.03786
C          2.45469       -0.05622       -0.15243
C          2.98603       -0.25715       -1.36862
C          3.24215        0.15256        1.11125
O          2.66596        0.33023        2.18662
C          4.78521        0.15693        1.13770
N          5.30996        0.36347        2.38781
O          5.49500       -0.00443        0.16100
H          0.42461       -0.18033       -0.90364
H          0.64707        0.94377        0.43959
H          0.64707       -0.81264        0.72977
H          2.35010       -0.40082       -2.23820
H          4.05095       -0.29001       -1.56749
H          4.68672        0.49394        3.17753
H          6.31113        0.38418        2.51316
