21

C          0.97150       -0.13853       -0.02737
C          2.48746       -0.06977        0.08836
N          3.06651       -1.35375       -0.31845
C          4.55649       -1.32525       -0.35425
C          5.18323       -1.10494        1.03569
O          4.69996       -2.07168        1.96432
C          5.05433       -2.66873       -0.93228
O          4.58230       -2.83719       -2.27076
H          0.52589        0.81002        0.29022
H          0.56159       -0.93165        0.60605
H          0.65803       -0.32729       -1.06001
H          2.74083        0.15997        1.12786
H          2.85909        0.74180       -0.54715
H          2.75179       -1.54078       -1.27268
H          4.87567       -0.52478       -1.03373
H          4.94961       -0.11012        1.42779
H          6.27425       -1.19012        0.99118
H          3.74403       -2.15561        1.76751
H          4.71768       -3.52485       -0.33592
H          6.14854       -2.69105       -0.96327
H          3.68032       -3.19292       -2.19700
