17

C          1.21196       -0.10893        0.11170
C          2.72456        0.04480        0.20443
C          3.11162        1.38991        0.84072
C          4.57205        1.41834        1.18773
C          5.27015        0.29256        1.39891
C          4.62100       -1.04056        1.34532
O          5.22441       -2.05546        1.66772
N          3.31682       -1.06510        0.93118
H          0.76629        0.72647       -0.43784
H          0.75500       -0.15007        1.10647
H          0.94908       -1.03600       -0.40944
H          3.14364        0.00152       -0.80975
H          2.53665        1.57243        1.75695
H          2.88172        2.20282        0.14242
H          5.05929        2.38390        1.28059
H          6.32036        0.29986        1.66413
H          2.96106       -2.00353        0.79208
