17

C          1.34378       -0.00689       -0.10627
C          3.04547        0.01928        0.07863
C          2.86015        0.26010       -1.41433
C          4.26125        0.23356       -1.52089
C          5.12547        0.28667       -2.54283
C          6.32192        0.27917       -1.89256
C          5.98507        0.23223       -0.54350
N          4.58049        0.12580       -0.21008
H          0.87822       -0.73013        0.59853
H          0.86170       -0.32866       -1.06100
H          0.87579        0.95262        0.18050
H          2.84061       -0.46675        1.03810
H          2.49797        1.24926       -1.73374
H          2.47433       -0.46805       -2.13336
H          4.88467        0.34924       -3.59086
H          7.30804        0.32861       -2.39208
H          6.75211        0.23664        0.23112
