19

C          2.43133       -1.60472        0.31393
C          2.48779       -0.10746       -0.00084
N          3.35653        0.56457        0.96351
C          2.93537        0.21024       -1.38988
C          3.27405       -0.59913       -2.39176
O          3.63208        0.00470       -3.57885
C          3.24467        1.37926       -3.37697
C          3.07846        1.60928       -1.87850
H          2.07097       -1.77708        1.33418
H          3.41645       -2.07758        0.22306
H          1.74390       -2.12193       -0.36532
H          1.47565        0.29716        0.12169
H          4.28808        0.15410        0.90901
H          3.02366        0.36881        1.90689
H          3.33336       -1.67499       -2.40882
H          2.29880        1.54449       -3.90802
H          4.00181        2.03840       -3.81380
H          2.21008        2.23919       -1.66754
H          3.97208        2.08000       -1.45459
