16

C          0.98774       -0.08630       -0.07070
C          2.45213        0.09446       -0.06441
N          3.14803        1.21235       -0.03442
C          4.45152        0.78447       -0.03899
C          4.49809       -0.59007       -0.06564
C          5.58395       -1.59217       -0.06269
N          6.45093       -1.43071       -1.22607
O          3.20727       -1.04723       -0.08548
H          0.47895        0.88226       -0.07080
H          0.66702       -0.64148        0.81578
H          0.67311       -0.63873       -0.96084
H          5.28242        1.47578       -0.02375
H          5.16978       -2.60639       -0.05917
H          6.18100       -1.47972        0.84838
H          5.89495       -1.57804       -2.06845
H          7.15295       -2.16834       -1.21919
