17

C          1.10082        0.77499       -0.93007
N          2.51421        0.36893       -0.66631
C          1.97735       -0.75860        0.14844
C          0.72353        0.09226        0.40651
C          0.46073        0.97798        1.58766
C         -1.03182        0.86464        1.66520
N         -1.54944       -0.09085        0.95564
N         -0.53537       -0.65372        0.22195
H          0.69782        0.32082       -1.84455
H          0.94190        1.85662       -0.98331
H          3.03088        1.05397       -0.11494
H          2.57928       -1.01697        1.02170
H          1.83025       -1.66938       -0.45063
H          0.76615        2.01698        1.45004
H          0.88103        0.58411        2.51573
H         -1.61669        1.51833        2.32703
H         -0.50407       -1.66279        0.38127
