17

C          1.08435       -0.47678       -0.17493
C          2.34827        0.18977        0.29208
C          1.21349        1.02945       -0.26358
C          1.40377        1.69619       -1.59343
O          1.97299        2.98547       -1.35356
N          1.10647        3.87027       -0.66707
C          0.42104        3.33195        0.29642
C          0.40114        1.87524        0.67138
H          0.43551       -0.90245        0.58477
H          1.12462       -1.05839       -1.08903
H          3.24128        0.06026       -0.31073
H          2.54931        0.22295        1.35645
H          0.45604        1.80319       -2.13429
H          2.09417        1.13900       -2.23606
H         -0.22640        3.99559        0.89302
H         -0.64869        1.55842        0.63532
H          0.73118        1.78453        1.71114
