20

C          2.04944        1.14914        0.75915
N          2.34402       -0.06488        0.00959
C          3.03325       -1.04053        0.85709
C          2.06293       -1.67392        1.88651
C          2.68745       -3.04924        1.51674
O          3.79456       -3.48931        2.34450
C          3.01409       -2.41713        0.12932
N          4.36360       -2.78029       -0.30594
H          1.60637        1.89084        0.08610
H          2.95111        1.58877        1.19737
H          1.31995        0.96013        1.55317
H          2.88678        0.18461       -0.81853
H          3.99693       -0.71956        1.27312
H          0.99382       -1.61074        1.64766
H          2.20960       -1.35181        2.92170
H          1.94740       -3.85509        1.45800
H          4.29911       -2.68778        2.55588
H          2.23316       -2.56757       -0.62674
H          5.00292       -3.04520        0.44144
H          4.82263       -2.10055       -0.90497
