17

C          1.00416       -0.24934       -0.02366
C          2.50858       -0.06902       -0.07071
C          3.20960        0.98602        0.83638
N          4.13929       -0.08415        1.22247
C          3.34804       -1.07919        0.73364
O          3.34754       -2.26167        0.97087
C          2.47795        1.48857        2.02449
C          2.18784        2.78881        2.15087
H          0.50363        0.59496       -0.50897
H          0.62510       -0.32912        0.99949
H          0.71185       -1.15997       -0.55691
H          2.84737       -0.01809       -1.11561
H          3.72697        1.77017        0.27015
H          4.60291       -0.23403        2.10713
H          2.16598        0.78930        2.79728
H          2.47495        3.52455        1.40413
H          1.64769        3.14957        3.02200
