17

C          0.91790       -0.29416        0.54649
C          2.29077        0.15946        0.12340
O          3.15699       -0.64577       -0.20135
C          2.52791        1.63120        0.13963
C          3.73164        2.22419        0.12123
C          5.06791        1.63270        0.09529
C          5.56709        0.80473       -1.05619
N          5.99980        2.18529       -0.89229
H          0.80724       -1.36336        0.34122
H          0.15031        0.24317       -0.01654
H          0.79331       -0.12381        1.61865
H          1.63512        2.24497        0.20537
H          3.72590        3.31353        0.17686
H          5.49986        1.43085        1.07130
H          4.89973        0.58311       -1.87963
H          6.30093        0.03908       -0.83986
H          5.52056        2.77476       -1.57387
