17

C          0.88733       -0.05935       -0.26777
C          2.33649        0.12060        0.08424
C          2.70256        0.01339        1.53731
N          2.02135        1.04714        2.31164
O          3.22658       -0.61712       -0.77168
C          3.22493        0.80852       -0.93707
C          4.47126        1.41900       -0.58884
C          5.52006        1.94822       -0.34105
H          0.41049       -0.80129        0.37917
H          0.76044       -0.39024       -1.30439
H          0.35415        0.89047       -0.15481
H          3.78264        0.09228        1.69894
H          2.39918       -0.97108        1.91322
H          2.38436        1.95866        2.03669
H          2.26849        0.93359        3.29409
H          2.75181        1.19174       -1.83482
H          6.45565        2.41992       -0.14794
