19

C          2.66370        1.42759        0.79105
N          2.55820        0.12783        0.15109
C          1.65505       -0.79415        0.65598
O          0.96269       -0.66087        1.65665
C          3.26284       -0.11575       -1.13253
C          4.62761        0.59586       -1.33197
C          5.12219       -0.68974       -2.02060
C          4.05521       -1.44835       -1.20761
H          2.02391        1.49977        1.67448
H          2.36428        2.19699        0.07373
H          3.69792        1.59432        1.10199
H          1.60909       -1.71019        0.04547
H          2.58243        0.02604       -1.98310
H          5.18321        0.82326       -0.41583
H          4.60595        1.48695       -1.96504
H          6.15934       -0.96772       -1.81534
H          4.95237       -0.70816       -3.10262
H          4.42120       -1.82004       -0.24327
H          3.55915       -2.26554       -1.73827
