11

C          1.17692        0.08332        0.06006
C          2.51294        0.11919        0.07626
C          3.22394        1.34671        0.02745
C          3.82851        2.38386       -0.02193
C          4.55395        3.63111       -0.09008
O          4.53366        4.28970       -1.12383
C          5.29830        4.07968        1.07164
N          5.88989        4.42127        2.01354
H          0.64939       -0.86501        0.09293
H          0.57648        0.98694        0.01053
H          3.08272       -0.80496        0.12243
