17

C          3.57383        0.16052        1.24092
C          2.62783        0.08891        0.05178
C          2.99150        1.04128       -1.03871
C          3.31881        0.74092       -2.29934
N          3.52550        1.88084       -3.00614
C          3.33037        3.01196       -2.23456
O          3.42604        4.16602       -2.61695
C          2.97595        2.54017       -0.83244
H          3.26732       -0.55902        2.00753
H          3.56885        1.15536        1.69838
H          4.60105       -0.07632        0.94520
H          1.60664        0.30388        0.38759
H          2.62124       -0.93837       -0.33225
H          3.40424       -0.23262       -2.76168
H          3.76626        1.93401       -3.98597
H          1.98490        2.90191       -0.54984
H          3.74588        2.86431       -0.12840
