20

C          1.39052        0.49912       -1.09834
N          2.69770        0.19700       -0.52172
N          3.01863       -1.11243       -0.53648
C          4.08799       -1.43244        0.11281
C          4.54465       -2.87250        0.07439
C          4.84052       -3.37194        1.48340
C          5.75625       -2.96124       -0.85128
O          5.40635       -2.67439       -2.20264
H          1.25602        1.58029       -1.18680
H          0.58979        0.09765       -0.46866
H          1.29884        0.06295       -2.09896
H          2.76023        0.61909        0.40727
H          4.72409       -0.69835        0.64341
H          3.72766       -3.46658       -0.35902
H          4.70746       -2.59616        2.24499
H          5.85698       -3.76957        1.57567
H          4.15489       -4.18943        1.73536
H          6.55230       -2.27221       -0.54867
H          6.16509       -3.97682       -0.84227
H          4.77581       -1.92695       -2.21489
