16

C          1.02517        0.04973        0.04565
C          2.55202        0.06609        0.06787
N          3.01875        1.33325        0.65399
C          4.48398        1.45321        0.66235
C          4.89840        2.71991        1.38699
O          4.21057        3.30206        2.22408
C          3.05869       -1.15940        0.81075
N          3.47900       -2.17604        1.42703
H          0.63179        0.88048       -0.55054
H          0.60340        0.12345        1.05485
H          0.65362       -0.88198       -0.39709
H          2.90600        0.00491       -0.96887
H          2.67476        1.44063        1.61278
H          4.86030        1.51519       -0.36346
H          4.97659        0.62219        1.17770
H          5.92178        3.06888        1.16617
