17

C          1.03506       -0.03542        0.06545
C          2.55922       -0.06435        0.12572
N          3.06780        1.04862        0.95702
C          4.41870        0.63193        1.37581
C          4.37820       -0.87729        1.35588
O          5.29021       -1.60088        1.73707
C          3.08588       -1.37196        0.74091
O          3.23854       -2.39232       -0.22622
H          0.67864        0.89806       -0.38420
H          0.59092       -0.11775        1.06405
H          0.65580       -0.86634       -0.53824
H          2.94406        0.05306       -0.89658
H          2.48106        1.14395        1.78924
H          4.65433        1.00738        2.37397
H          5.16030        0.97333        0.64820
H          2.43651       -1.73371        1.54643
H          4.08307       -2.23578       -0.69031
