19

C          1.00586        0.11641       -0.23621
C          2.51032        0.00133       -0.01798
N          2.90808       -1.41857        0.17911
C          2.91278       -1.75846        1.62394
C          3.39025       -0.57494        2.48773
C          2.36643        0.57675        2.54178
C          2.98852        0.88555        1.15660
O          4.26672        0.33270        1.69731
H          0.70616       -0.41165       -1.14822
H          0.70884        1.16529       -0.33901
H          0.43163       -0.31039        0.59232
H          3.00537        0.34970       -0.93318
H          3.89060       -1.46730       -0.11082
H          3.57847       -2.61600        1.76967
H          1.91038       -2.07659        1.93256
H          3.82680       -0.84565        3.45298
H          2.57210        1.33191        3.30758
H          1.31177        0.30121        2.58057
H          3.07138        1.95144        0.92258
