15

C          1.13530       -0.06410        0.20395
N          2.56431       -0.04892        0.36523
C          3.43850        1.02571       -0.13173
C          4.37108       -0.05568       -0.72170
C          4.48488       -0.04495       -2.16726
C          4.52481       -0.04256       -3.36793
C          3.30773       -1.05215       -0.20141
O          3.06756       -2.22991       -0.32803
H          0.74551        0.95337        0.30019
H          0.70162       -0.70056        0.97891
H          0.87260       -0.47071       -0.77783
H          3.87356        1.60883        0.68607
H          2.94393        1.69857       -0.84052
H          5.33020       -0.15067       -0.19902
H          4.52900       -0.05433       -4.43374
