12

C          1.02712        0.30582       -0.44075
C          2.35982        0.26546       -0.36880
O          3.08903        1.28364        0.19391
C          4.40545        1.15171        0.29871
N          5.15650        0.07855        0.18525
N          6.46002        0.51914        0.33734
C          6.38189        1.81758        0.52292
O          5.10730        2.29702        0.52686
H          0.47259       -0.49851       -0.91215
H          0.46736        1.14143       -0.03403
H          2.93935       -0.55518       -0.77271
H          7.18088        2.52956        0.66339
