18

C          1.05900        0.11288       -0.10231
C          2.52938        0.28688        0.01858
O          3.31356       -0.45827       -0.91569
C          3.30921        0.97651       -1.07347
C          4.59284        1.63986       -0.76262
C          5.78310        1.24393       -1.59256
N          4.57070        2.52490        0.18923
N          5.73525        3.15110        0.46574
H          0.70302       -0.62106        0.62708
H          0.76471       -0.22810       -1.10012
H          0.55283        1.06264        0.09689
H          2.87279        0.36639        1.04124
H          2.76252        1.38664       -1.91290
H          5.49649        0.53024       -2.36967
H          6.53789        0.77948       -0.95180
H          6.20997        2.12864       -2.07264
H          5.62540        3.72500        1.30577
H          6.49374        2.49779        0.66616
