15

C          1.00641       -0.12473       -0.00503
C          2.34780       -0.06109       -0.04535
C          3.06089        1.26301       -0.09863
N          4.49487        1.15083        0.03281
C          5.22294        0.00760       -0.03460
O          6.44820        0.01659       -0.04698
C          4.47330       -1.25887       -0.06679
C          3.13678       -1.27312       -0.06037
H          0.39953        0.77614       -0.00486
H          0.47252       -1.07011        0.02258
H          2.72287        1.91861        0.71178
H          2.86549        1.76437       -1.05294
H          5.05017        1.99554        0.02377
H          5.06257       -2.16661       -0.07841
H          2.62156       -2.22990       -0.06462
