17

C          0.91614        0.08618        0.29741
C          2.41972        0.09822        0.01504
C          2.93669       -1.28591       -0.36978
C          2.55492       -1.60769       -1.80191
O          3.15941       -0.63955       -2.65698
N          2.69647        0.66247       -2.36255
C          2.69705        1.11629       -1.07454
O          2.76810        2.32096       -0.83163
H          0.66527       -0.65678        1.06075
H          0.33148       -0.13366       -0.60242
H          0.58744        1.06636        0.65969
H          2.94945        0.42242        0.91935
H          2.56204       -2.05367        0.31542
H          4.03186       -1.27910       -0.29169
H          1.47172       -1.62972       -1.96364
H          2.95112       -2.58866       -2.08208
H          2.92482        1.35592       -3.06819
