17

C          1.08828        0.08246       -0.08526
C          2.41956       -0.00860       -0.10732
O          3.23050        1.05955       -0.50976
C          4.54899        0.47549       -0.31346
C          4.76498       -0.62006       -1.37432
N          3.93809       -1.75125       -0.85854
C          3.28544       -1.16082        0.33718
C          4.39782       -0.34118        0.95510
H          0.59302        0.98840       -0.41672
H          0.47368       -0.74623        0.24649
H          5.31677        1.25202       -0.29328
H          5.81457       -0.92761       -1.42319
H          4.41630       -0.31776       -2.36634
H          4.55907       -2.49953       -0.55418
H          2.80841       -1.88924        0.99543
H          5.29017       -0.91841        1.21973
H          4.06875        0.25396        1.81507
