21

C          0.85159        0.92624        0.17656
C          2.04702        0.06623       -0.18160
C          3.08742       -0.44723        0.85066
C          3.99587       -0.73505       -0.37943
C          3.24815        0.42599       -1.11719
N          4.09256        1.60774       -0.87106
C          3.51535        2.83630       -1.40869
C          3.74689        2.65116        0.06432
H          0.29705        0.47358        1.00526
H          0.16715        0.98574       -0.67747
H          1.09182        1.94543        0.46256
H          1.54568       -0.82743       -0.60968
H          3.47786        0.30844        1.54047
H          2.79442       -1.32510        1.43106
H          3.81295       -1.71975       -0.82817
H          5.07492       -0.63860       -0.21823
H          3.06654        0.23579       -2.18123
H          2.49597        2.81254       -1.77543
H          4.19727        3.47203       -1.95517
H          2.92225        2.53516        0.74400
H          4.58665        3.17409        0.51310
