19

C          0.93460       -0.00455       -0.04492
C          2.44818       -0.11000       -0.05618
N          3.10424        0.93384        0.77733
C          4.12485       -0.05800        1.18824
C          3.13206       -1.19572        0.83285
O          2.35311       -1.72639        1.94661
C          3.74144       -2.36183        0.06245
O          2.71893       -3.31619       -0.22529
H          0.60355        0.86481       -0.62299
H          0.52987        0.09175        0.96801
H          0.48884       -0.89494       -0.50023
H          2.81752       -0.10190       -1.09159
H          2.53163        1.28544        1.54451
H          4.41436        0.00616        2.24171
H          5.03442       -0.02529        0.57701
H          2.03695       -0.93841        2.42133
H          4.50836       -2.86457        0.66096
H          4.19790       -2.04762       -0.88098
H          2.22000       -3.41066        0.61154
