19

C          3.02444       -1.36085       -0.13430
C          2.32760       -0.04968        0.21864
N          3.19488        0.69796        1.09793
C          2.64347        1.98226        1.59446
C          1.34491        2.56461        1.99898
C          2.88260        0.73251        2.48793
C          3.97742        0.77699        3.47444
O          3.71559        0.63590        4.68257
H          2.39910       -1.95091       -0.81606
H          3.21901       -1.96719        0.75415
H          3.98246       -1.18094       -0.64195
H          1.33749       -0.25753        0.63516
H          2.18677        0.52232       -0.70849
H          3.16967        2.66322        0.94937
H          1.33933        3.64335        1.78659
H          1.21802        2.49858        3.09153
H          0.48589        2.10157        1.51903
H          2.02340        0.17142        2.81034
H          5.00059        0.92440        3.11972
