19

C          1.83073        0.17464        0.69960
C          3.18156        0.06391       -0.03618
C          3.51401       -1.46308       -0.21889
N          4.22629       -1.33029        1.13017
C          4.60502       -0.00896        0.61091
C          4.65585        1.29573        1.34207
O          4.08535        2.21401        0.37986
C          3.51003        1.40097       -0.67932
H          1.60823       -0.69769        1.32130
H          1.01936        0.25789       -0.03498
H          1.78416        1.05721        1.34630
H          4.16962       -1.71707       -1.06278
H          2.67503       -2.16386       -0.20151
H          4.99684       -1.98120        1.25963
H          5.45242       -0.07375       -0.09316
H          5.68131        1.61246        1.55551
H          4.07012        1.32414        2.26544
H          4.24202        1.31992       -1.49519
H          2.62919        1.91897       -1.07044
