18

C          1.05180       -0.00468       -0.36861
C          2.52701       -0.07068       -0.00475
N          3.17293        1.20065       -0.34215
N          4.54774        1.20277       -0.01679
C          5.32778        2.44050       -0.24755
C          6.41702        1.57501       -0.89089
C          5.42533        0.42033       -0.74501
O          5.37977       -0.72089       -1.14899
H          0.56253       -0.95684       -0.13967
H          0.91924        0.19131       -1.43771
H          0.53856        0.78432        0.19221
H          2.97375       -0.90192       -0.56039
H          2.63285       -0.28439        1.06623
H          2.72232        1.93811        0.20253
H          5.61965        2.93145        0.68567
H          4.84178        3.15823       -0.91663
H          7.33451        1.45157       -0.31111
H          6.64945        1.82076       -1.93007
