18

C         -0.50665        1.23687        0.93730
N         -1.73120        0.50208        0.50328
C         -0.94238       -0.15307       -0.57439
C         -0.50953       -1.50369       -0.13950
C          0.75051       -1.68685        0.27641
C          1.77697       -0.59926        0.31933
N          1.47803        0.56622       -0.51512
C          0.07300        1.00831       -0.47163
H         -0.01183        0.76006        1.78918
H         -0.68399        2.28452        1.20370
H         -2.44809        1.12752        0.13514
H         -1.46573       -0.20161       -1.53723
H         -1.23606       -2.30838       -0.12633
H          1.05168       -2.66213        0.64883
H          2.73336       -1.01325       -0.02233
H          1.94189       -0.28847        1.35671
H          1.76803        0.33798       -1.46517
H         -0.13831        1.83717       -1.15878
