15

C          1.08004        1.48169       -0.18110
O          2.12067        0.48751       -0.33658
C          1.61829       -0.82986       -0.00823
C          0.17814       -0.54659        0.05947
N         -0.83031       -1.29654       -0.22714
O         -1.96223       -0.44044       -0.13352
C         -1.47037        0.91563       -0.19191
C         -0.12021        0.82840        0.45146
H          0.86595        1.91772       -1.16333
H          1.47531        2.27963        0.45463
H          2.00661       -1.11736        0.97191
H          1.88306       -1.55189       -0.78263
H         -2.15046        1.56901        0.36055
H         -1.44235        1.23429       -1.24050
H         -0.13415        0.88541        1.54503
