19

C          0.96583        0.06969       -0.08615
N          2.43659        0.00786       -0.05445
C          2.85974       -0.21904        1.33988
C          4.35199       -0.16880        1.51214
C          5.08550       -1.17403        2.00970
C          2.92500       -1.08081       -0.93134
C          2.57265       -0.79804       -2.37683
O          1.96836       -1.59121       -3.09551
H          0.60250        0.87976        0.55622
H          0.50673       -0.86798        0.24914
H          0.59655        0.29374       -1.09253
H          2.45471       -1.16586        1.72106
H          2.44806        0.57848        1.97273
H          4.84316        0.75545        1.21994
H          4.63220       -2.11274        2.31572
H          6.16189       -1.08004        2.11403
H          2.51891       -2.05623       -0.64014
H          4.01890       -1.13962       -0.91117
H          2.92811        0.16693       -2.77482
