19

C          3.30625       -0.90969       -0.31235
N          2.38763        0.20357       -0.10088
C          3.00915        1.29586        0.66547
C          4.08341        2.12292        0.01946
C          2.73341        2.73068        0.27800
O          2.73382        3.71573        1.33148
C          1.50027        3.88354        1.90086
C          1.30346        4.76812        2.88040
H          2.80517       -1.69732       -0.88287
H          3.64422       -1.33516        0.63772
H          4.18124       -0.59485       -0.89052
H          1.55740       -0.13957        0.38369
H          3.11625        1.09988        1.73083
H          4.35096        1.92090       -1.00973
H          4.91245        2.43769        0.64201
H          2.11869        2.91922       -0.59759
H          0.71485        3.25168        1.50959
H          2.11863        5.38281        3.24266
H          0.32695        4.89347        3.33435
