17

C          0.87954       -0.09493        0.10258
C          2.38121       -0.04203       -0.15146
C          2.74270       -0.02510       -1.63245
O          2.21416       -1.17104       -2.29411
C          3.12151        1.02032        0.71223
N          4.03479       -0.04898        1.12500
C          3.22534       -1.04374        0.66691
O          3.24252       -2.22849        0.88588
H          0.37379        0.75022       -0.37735
H          0.64893       -0.05544        1.17282
H          0.44315       -1.01862       -0.29204
H          3.82635       -0.00678       -1.79413
H          2.32299        0.86109       -2.11995
H          2.61773       -1.96295       -1.89110
H          2.56993        1.43517        1.56209
H          3.62361        1.82323        0.16662
H          4.50823       -0.19054        2.00737
