16

C          1.10550       -0.14155        0.05056
C          2.61269       -0.11998        0.05840
C          3.30995        1.13856        0.51587
N          3.23835       -1.19135       -0.33104
O          4.63193       -1.00364       -0.26281
C          5.26315       -2.12759       -0.67136
N          6.55210       -2.17879       -0.68997
O          6.95790       -3.43916       -1.14810
H          0.69345        0.80939        0.39622
H          0.75144       -0.94025        0.70844
H          0.75144       -0.33137       -0.96664
H          2.58683        1.90779        0.79548
H          3.93497        1.52500       -0.29417
H          3.93497        0.91464        1.38498
H          4.59316       -2.95006       -0.97031
H          7.93086       -3.36635       -1.12164
