20

C          1.05070       -0.23942       -0.01300
N          2.42460        0.18364       -0.24696
C          2.56684        1.39171       -1.04798
N          3.43721       -0.56690        0.26061
C          4.64256       -0.10418        0.13679
C          5.86757       -0.84169        0.62018
C          5.60497       -2.11129        1.40389
O          5.03102       -3.10727        0.56836
H          0.30939        0.40916       -0.49554
H          0.82668       -0.23762        1.05892
H          0.88971       -1.25065       -0.40095
H          1.61464        1.78157       -1.42271
H          3.18987        1.19698       -1.92780
H          3.02437        2.19270       -0.45720
H          4.86682        0.85754       -0.35297
H          6.46870       -1.05859       -0.26997
H          6.43490       -0.13602        1.23784
H          4.94811       -1.94345        2.26288
H          6.55510       -2.50808        1.77807
H          4.15869       -2.75522        0.29816
