15

C          0.92773        0.06511        0.02320
C          2.44773        0.06511        0.02320
C          3.75159        0.06511        0.02320
C          5.19674       -0.00512        0.01197
C          5.94143       -1.27852       -0.19006
C          5.34176       -2.46120       -0.37851
N          5.67972        1.18062        0.20013
O          7.08188        1.18121        0.20015
H          0.55467       -0.46398        0.90451
H          0.55471       -0.43370       -0.87561
H          0.55456        1.09285        0.04067
H          7.02297       -1.20822       -0.17832
H          4.26290       -2.57616       -0.39745
H          5.93601       -3.35862       -0.52094
H          7.28646        2.12340        0.34929
