18

C          1.14743       -0.69191        0.41809
N          2.29405        0.06954       -0.04381
N          2.98906       -0.25852       -1.23745
C          2.11916       -0.46790       -2.39674
C          2.94502       -0.64623       -3.63530
C          2.96364       -1.76264       -4.37696
C          2.81958        1.06049        0.77930
O          2.36947        1.39312        1.86901
H          0.91943       -1.53380       -0.23683
H          0.28555       -0.01871        0.46449
H          1.34722       -1.07236        1.42447
H          3.54263       -1.10171       -1.07472
H          1.45664        0.39339       -2.53924
H          1.48922       -1.35233       -2.25356
H          3.54126        0.20766       -3.94903
H          2.37776       -2.63747       -4.11102
H          3.56817       -1.82266       -5.27790
H          3.71476        1.53550        0.34887
