18

C          0.96829        0.08819        0.07032
C          2.46866        0.03465       -0.06431
C          3.00058       -0.13533       -1.45890
O          3.83582        0.97000       -1.78808
C          3.21127        0.10133        1.06039
C          4.69802        0.02668        1.18030
N          5.54461       -0.08257        0.12488
N          5.26728        0.07945        2.34408
H          0.46424        0.05391       -0.90016
H          0.65817        1.01392        0.56587
H          0.60780       -0.76521        0.65544
H          2.20397       -0.18419       -2.20809
H          3.57812       -1.06188       -1.54781
H          3.25638        1.75184       -1.82048
H          2.70120        0.20437        2.01473
H          5.24871        0.41893       -0.71371
H          6.49664        0.13717        0.39391
H          4.57325        0.15862        3.09253
