15

C          0.96809       -0.05529        0.13330
C          2.45584        0.02687        0.03978
C          3.15271        1.17699        0.00724
C          4.59406        1.17812       -0.08939
C          5.25838        0.01849       -0.14674
N          4.57477       -1.16820       -0.11213
C          3.20559       -1.26901       -0.02100
O          2.63600       -2.35452        0.00877
H          0.51047        0.93732        0.20136
H          0.66816       -0.62036        1.02174
H          0.55595       -0.55174       -0.75140
H          2.65242        2.13944        0.04978
H          5.11478        2.12942       -0.11576
H          6.33912       -0.03738       -0.22134
H          5.07438       -2.04755       -0.15382
