16

C          1.10224       -0.09906        0.22307
N          2.50945       -0.03869       -0.10846
C          3.31467        1.05226       -0.13644
N          3.03346        2.23091        0.28550
C          4.61836        0.70651       -0.77622
C          4.64028       -0.80603       -0.69411
C          3.19697       -1.16690       -0.47499
O          2.74817       -2.30021       -0.55755
H          0.67316        0.89517        0.35737
H          0.97985       -0.68508        1.13825
H          0.57262       -0.61074       -0.58717
H          2.10511        2.26638        0.70986
H          5.46333        1.17171       -0.26338
H          4.59764        1.04854       -1.81680
H          5.22511       -1.14751        0.16683
H          5.02570       -1.25973       -1.61076
