23

C          0.92176        0.05321       -0.05932
C          2.43831       -0.08318       -0.03802
C          2.94510       -1.19410        0.90076
C          2.38695       -2.59389        0.55114
O          2.90263       -3.55452        1.48424
C          2.44342       -4.86665        1.18695
N          4.42381       -1.19175        1.02842
C          5.14656       -1.38654       -0.21895
H          0.63425        0.94261       -0.62951
H          0.51710        0.15270        0.95253
H          0.45175       -0.80950       -0.54058
H          2.86394        0.87662        0.28311
H          2.77727       -0.25647       -1.06538
H          2.58362       -0.95859        1.91139
H          2.66529       -2.88438       -0.46810
H          1.29512       -2.59473        0.62992
H          2.79513       -5.54133        1.97207
H          2.85086       -5.20071        0.22829
H          1.34969       -4.89899        1.16356
H          4.65187       -1.97252        1.65267
H          5.00275       -0.54980       -0.90842
H          4.87305       -2.31935       -0.71934
H          6.21927       -1.43407       -0.00529
