13

C          1.10372       -0.01769       -0.00899
C          2.58938        0.11002       -0.13490
N          3.15909        1.25267       -0.31478
C          4.51802        1.32519       -0.43133
O          5.14040        2.37451       -0.53872
C          5.25583        0.05295       -0.43652
C          4.56770       -1.06718       -0.24220
O          3.19525       -1.11048       -0.05753
H          0.64393        0.97085        0.07695
H          0.85508       -0.60005        0.88206
H          0.70797       -0.51806       -0.89711
H          6.32512        0.08710       -0.58645
H          4.99812       -2.05858       -0.21206
