20

C          0.96843       -0.16728       -0.01303
C          2.47892        0.01519        0.01899
C          2.91559        1.43122        0.42372
C          2.43137        1.89947        1.80351
N          2.84915        1.03154        2.90347
C          4.42492        1.50629        0.38387
N          5.02864        2.31404       -0.42802
O          6.40966        2.17484       -0.24877
H          0.71692       -1.14371       -0.43984
H          0.49040        0.60325       -0.62597
H          0.53972       -0.12626        0.99271
H          2.87495       -0.20233       -0.98169
H          2.92190       -0.73602        0.68400
H          2.52781        2.13711       -0.32324
H          1.33865        1.97984        1.81120
H          2.82067        2.90621        1.99850
H          2.39917        0.12000        2.82265
H          2.52202        1.42774        3.78498
H          4.98517        0.84622        1.07135
H          6.77014        2.83658       -0.86740
