19

C          1.00904        0.24765        2.29499
C          2.49877        0.32887        2.23068
C          3.19369        0.27203        1.08262
C          4.67118        0.38515        1.08758
N          5.31666       -0.72752        1.82843
C          6.35976       -0.80180        0.78344
C          5.40112       -0.09804       -0.19973
O          5.96637        0.91345       -1.06435
H          0.66358        0.55627        3.28740
H          0.67237       -0.77879        2.12521
H          0.54195        0.91040        1.56030
H          3.02391        0.44288        3.17762
H          2.68352        0.16878        0.12876
H          5.00436        1.37559        1.42896
H          4.73070       -1.56254        1.87755
H          6.65451       -1.81858        0.50888
H          7.26234       -0.23084        1.03021
H          4.82463       -0.81662       -0.79754
H          6.45146        1.51229       -0.47013
