21

C          2.71841       -2.81361        0.15065
N          2.45008       -1.38008        0.06441
C          3.02544       -0.64579        1.20081
C          4.53739       -0.64921        1.20774
C          5.26013       -0.09747       -0.00170
O          4.37456        0.45061       -0.96679
C          5.20080       -1.13721        2.27787
C          6.68340       -1.23212        2.45249
H          2.17871       -3.32870       -0.65015
H          2.38427       -3.23433        1.10450
H          3.78189       -3.03230        0.01185
H          1.43779       -1.24447        0.09338
H          2.61113       -1.03439        2.13971
H          2.68884        0.39683        1.13881
H          5.83147       -0.89148       -0.49385
H          5.94803        0.70101        0.29420
H          3.66071       -0.21288       -1.07483
H          4.62772       -1.52145        3.12185
H          7.24525       -0.84333        1.59969
H          6.97010       -2.27888        2.59499
H          6.98655       -0.67087        3.34164
