21

C          2.27143       -1.22120        0.86045
C          2.45398        0.01067       -0.01436
C          3.03093        1.19191        0.74785
N          4.37734        0.94300        1.30850
C          3.08101        2.53906       -0.01876
C          2.68943        3.26669        1.28085
C          2.16917        1.91710        1.83790
O          2.50799        1.63039        3.21016
H          1.78247       -2.01789        0.29058
H          1.65524       -1.00043        1.73730
H          3.23258       -1.61016        1.21071
H          1.47736        0.28178       -0.43339
H          3.09745       -0.24394       -0.86536
H          5.07777        0.74322        0.59331
H          4.40445        0.13826        1.93771
H          2.31349        2.63261       -0.79774
H          4.03954        2.83388       -0.45744
H          1.93637        4.05104        1.16561
H          3.54253        3.68143        1.83103
H          1.08958        1.79834        1.68162
H          3.48397        1.66909        3.20041
