17

C         -1.67383       -0.35606        1.19746
C         -1.38652       -0.85231       -0.19086
O         -0.05544       -1.49117       -0.48445
C          0.90118       -0.59152        0.11978
C          2.16370        0.14744       -0.30813
N          1.47954        1.37509        0.38883
C          0.27839        0.82311       -0.25905
C         -1.12556        0.64229        0.21360
H         -1.04958       -0.68128        2.02075
H         -2.71395       -0.25011        1.48770
H         -2.21143       -1.07131       -0.85803
H          0.97559       -0.83884        1.19123
H          2.33763        0.26239       -1.38494
H          3.08982       -0.16409        0.18231
H          1.78256        2.27354        0.01659
H          0.24382        1.04866       -1.33995
H         -1.78363        1.39818       -0.19349
