21

C          1.06202        0.04954       -0.00388
C          2.55255        0.06336       -0.00481
C          3.30317       -0.90652       -0.53521
O          4.66734       -0.82873       -0.51139
C          5.31120       -1.96794       -1.08395
C          6.82367       -1.78102       -0.98599
C          7.28700       -1.66457        0.46585
N          8.73654       -1.49848        0.52706
H          0.68309        0.95150        0.48803
H          0.67885       -0.81580        0.54507
H          0.66980        0.03681       -1.02528
H          3.04500        0.91871        0.45132
H          2.88448       -1.78355       -1.01000
H          5.02620       -2.06072       -2.13932
H          5.00971       -2.87882       -0.55135
H          7.10814       -0.86930       -1.52645
H          7.32139       -2.62656       -1.47571
H          7.00295       -2.56199        1.02659
H          6.81492       -0.80490        0.95273
H          9.19784       -2.31842        0.13701
H          9.02631       -1.43956        1.50239
