19

C          1.04280        2.29178        0.63974
N          2.50014        2.31120        0.65741
C          3.03995        0.99238        0.99240
C          4.56927        0.98119        0.97802
C          5.19227        1.88684        2.03643
O          6.62611        1.80571        1.98254
C          7.18136        0.78927        2.68486
O          6.59306       -0.06004        3.33340
H          0.67092        3.29118        0.39194
H          0.63460        2.01533        1.61750
H          0.66241        1.60010       -0.11832
H          2.80170        3.00056        1.34396
H          2.68970        0.25753        0.25635
H          2.68160        0.67017        1.97736
H          4.94554        1.26521       -0.01291
H          4.91293       -0.04904        1.13386
H          4.82463        1.64906        3.04229
H          4.94015        2.93463        1.84441
H          8.27708        0.83973        2.57954
