17

C          1.46062        0.83009       -0.06518
C          2.87222        0.47136       -0.46554
C          3.09784       -0.98702       -0.82699
C          3.17088        0.05097       -1.90020
O          2.07407        0.10433       -2.82290
C          3.96068        1.29265        0.15244
N          4.55936        0.76070        1.25126
O          4.27022        2.37952       -0.30792
H          1.26024        0.46893        0.94963
H          0.70815        0.38485       -0.72482
H          1.31765        1.91521       -0.07759
H          4.01625       -1.46957       -0.52215
H          2.24314       -1.65890       -0.84877
H          4.16063        0.25945       -2.29922
H          1.94243        1.01984       -3.12981
H          4.28254       -0.12059        1.65172
H          5.29167        1.30206        1.69216
