20

C          1.03026       -0.11083       -0.00795
C          2.55686       -0.06741       -0.02076
C          3.24820        1.04994        0.82202
C          3.19730        0.00553        1.96793
N          3.16811       -1.07472        0.92140
C          4.57778       -1.28743        0.50047
C          5.25578       -0.01483       -0.06680
N          4.67173        1.24242        0.43759
H          0.62793        0.70846       -0.61314
H          0.60898       -0.01585        0.99768
H          0.66910       -1.05046       -0.43946
H          2.87508       -0.14695       -1.06926
H          2.69749        1.97766        0.99271
H          2.28137        0.04332        2.57145
H          4.03753       -0.01500        2.67253
H          4.60577       -2.07884       -0.25770
H          5.14959       -1.65894        1.36029
H          5.15610       -0.02282       -1.15983
H          6.32894       -0.03134        0.15029
H          4.82133        1.97775       -0.25109
