20

C          0.86279        1.77509       -0.38970
C          2.15205        1.87674       -1.18227
O          3.11130        0.96116       -0.62468
C          4.39732        1.09245       -1.04956
N          5.25452        0.23950       -0.41823
C          4.96544       -0.55282        0.74912
N          4.68226        1.95641       -1.95683
C          6.06412        2.07706       -2.38499
H          0.14480        2.53072       -0.72164
H          1.05357        1.91324        0.67968
H          0.40949        0.78636       -0.51017
H          2.52711        2.90373       -1.11629
H          1.96632        1.61492       -2.23033
H          6.23712        0.40095       -0.58331
H          3.89787       -0.73574        0.89704
H          5.36492       -0.06384        1.64270
H          5.45745       -1.52562        0.65082
H          6.11662        2.76130       -3.23711
H          6.48123        1.11835       -2.71206
H          6.68342        2.49697       -1.58587
