20

C          0.89740        0.07954       -0.00045
C          2.43606        0.04152       -0.07077
C          2.96498        1.40940        0.39425
C          2.95574       -1.09425        0.83596
O          2.55229       -0.92836        2.19302
C          2.94401       -0.22226       -1.50152
N          2.09123       -0.42052       -2.54299
N          4.20690       -0.25808       -1.79306
H          0.54430        0.26074        1.02093
H          0.46005       -0.86691       -0.33875
H          0.48763        0.87842       -0.62901
H          2.55939        1.68873        1.37281
H          2.68868        2.19687       -0.31677
H          4.05730        1.41497        0.47636
H          4.04880       -1.16664        0.81991
H          2.56947       -2.06132        0.49376
H          3.08918       -0.21574        2.57875
H          1.20880        0.07404       -2.53897
H          2.57334       -0.36682       -3.43556
H          4.79311       -0.09845       -0.96988
