19

C          0.92384       -0.00751        0.00996
C          2.44376        0.00682        0.03301
N          2.95985       -1.31788       -0.31354
C          4.41650       -1.30581       -0.37867
C          4.89920       -2.67276       -0.75205
C          5.25225       -3.00932       -2.00100
C          5.73383       -4.36846       -2.31871
O          6.01714       -4.69148       -3.46471
H          0.53452        0.98171        0.27122
H          0.52299       -0.73113        0.72793
H          0.54386       -0.26484       -0.98491
H          2.78562        0.29472        1.03350
H          2.80270        0.75875       -0.67971
H          2.59254       -1.58664       -1.22701
H          4.84224       -1.04259        0.59712
H          4.77098       -0.56270       -1.10309
H          4.96064       -3.39349        0.06001
H          5.18678       -2.32136       -2.83592
H          5.82078       -5.06584       -1.46687
