13

C          1.02022        0.09364        0.11591
C          2.50923        0.00799        0.02666
N          3.24240       -0.72892       -0.74119
O          2.45082       -1.53386       -1.57993
C          3.24270       -2.30608       -2.38458
O          4.46245       -2.35899       -2.43971
C          3.30513        0.83996        0.89357
C          3.94330        1.54514        1.62836
H          0.52167       -0.57831       -0.58425
H          0.70538        1.11921       -0.09874
H          0.70538       -0.16298        1.13178
H          2.57890       -2.91461       -3.01866
H          4.50814        2.17039        2.27986
