18

C          0.92309        0.97351       -0.09176
C          2.41554        1.04417       -0.06781
C          3.15125        0.57527        0.95238
C          4.65016        0.63084        1.01454
C          5.09289        1.45804        2.21511
O          4.75887        1.20567        3.37232
N          5.91121        2.53501        1.88808
N          6.44457        3.33535        2.92271
H          0.54487        1.41005       -1.02169
H          0.49147        1.53623        0.74162
H          0.58052       -0.06482       -0.04660
H          2.89717        1.50144       -0.92873
H          2.65429        0.12214        1.81033
H          5.06806        1.04361        0.08934
H          5.05741       -0.37964        1.13084
H          6.29122        2.63281        0.94967
H          6.26659        2.83417        3.80620
H          5.85944        4.17184        3.00196
