18

C          1.09192       -0.05610        0.01781
C          2.58839       -0.06927        0.16132
C          3.32776       -1.21609        0.97849
C          4.47108       -0.72198       -0.00304
N          3.32247       -0.71678       -1.04837
C          4.77227        0.76469        0.23795
N          4.25090        1.83655       -0.59094
C          3.31417        1.27628        0.36650
H          0.69891       -1.05312       -0.20880
H          0.77453        0.61979       -0.78334
H          0.61826        0.28065        0.94586
H          2.96646       -2.24113        0.83831
H          3.49031       -1.02387        2.04226
H          5.30417       -1.39247       -0.21576
H          2.98080       -1.64607       -1.29309
H          5.44591        0.95680        1.06069
H          4.03619        1.45763       -1.52020
H          3.04550        1.79755        1.27447
