19

C          1.15576       -0.03907        0.41344
C          2.38764       -0.11726       -0.10492
C          3.28574       -1.32335       -0.05627
C          4.35040       -0.91285       -1.09304
C          5.27358        0.16523       -0.50457
C          4.36075        1.39771       -0.48031
C          3.04292        0.85675       -1.05488
N          3.55282       -0.11407       -2.05099
H          0.73552       -0.86517        0.98071
H          0.51634        0.81701        0.22472
H          2.74759       -2.22331       -0.37209
H          3.71816       -1.46962        0.93964
H          4.87998       -1.75878       -1.53358
H          6.13786        0.33925       -1.15784
H          5.64293       -0.09732        0.49304
H          4.78304        2.17337       -1.13080
H          4.26222        1.80995        0.52857
H          2.38090        1.62381       -1.46242
H          4.16103        0.36159       -2.71570
