21

C          0.95546       -0.04426        0.01579
C          2.48505       -0.01870       -0.03121
C          2.98170        1.41248        0.18307
C          3.05981       -1.00352        1.00491
C          4.58455       -1.08183        0.98695
C          5.06522       -2.10662        1.97736
N          5.78865       -3.10838        1.59687
O          6.11534       -3.87947        2.71835
H          0.53153        0.62544       -0.74040
H          0.58249        0.27401        0.99547
H          0.57516       -1.05195       -0.18165
H          2.79655       -0.34226       -1.03246
H          2.76823        1.75830        1.20014
H          2.49721        2.10140       -0.51740
H          4.05988        1.48916        0.01460
H          2.64953       -2.00416        0.81317
H          2.71952       -0.72543        2.01100
H          5.02569       -0.12635        1.28484
H          4.94830       -1.33794       -0.01389
H          4.79317       -1.95129        3.03692
H          6.67698       -4.57860        2.33409
