17

C          1.02540        0.04660       -0.04913
C          2.51801        0.08243       -0.07280
N          3.23562       -0.99286       -0.11337
O          4.59008       -0.58193       -0.05934
C          4.63229        0.80980       -0.39657
C          3.28830        1.35189        0.03664
C          2.79417        2.47939       -0.84274
O          3.70461        3.57056       -0.81091
H          0.66852       -0.98625       -0.08791
H          0.62779        0.59095       -0.90922
H          0.66773        0.51484        0.87149
H          4.80635        0.89551       -1.47517
H          5.46090        1.28757        0.13473
H          3.32017        1.65255        1.08982
H          1.81234        2.83819       -0.51578
H          2.68847        2.15652       -1.88433
H          3.65183        3.98399        0.06876
