20

C          1.01008       -0.08608       -0.09259
C          2.53934       -0.10258       -0.03153
C          3.06340        1.31700        0.19311
C          3.05460       -1.03116        1.07839
N          2.62821       -2.40433        0.90469
C          3.33665       -3.30571        0.17279
N          2.78489       -4.54473        0.19614
O          4.37607       -3.07846       -0.42501
H          0.66183        0.59458       -0.87667
H          0.57745        0.24341        0.85829
H          0.61118       -1.07970       -0.32133
H          2.91350       -0.46019       -0.99937
H          2.72585        1.71716        1.15606
H          2.71174        1.99167       -0.59454
H          4.15816        1.33381        0.18376
H          2.68791       -0.70496        2.05822
H          4.15066       -1.00583        1.10808
H          1.78673       -2.71376        1.36486
H          1.78511       -4.63413        0.28055
H          3.23814       -5.20713       -0.42008
