15

C          0.94707       -0.16207       -0.03318
C          2.39238        0.09364       -0.09870
C          3.19097        1.17715       -0.13448
C          3.60424        2.55970       -0.12974
N          4.95980        2.03594       -0.27070
C          4.48021        0.78773       -0.23879
C          4.55124       -0.55505       -0.17719
O          3.23805       -1.01898       -0.11442
H          0.38330        0.77580       -0.01727
H          0.69421       -0.72802        0.86822
H          0.62190       -0.73820       -0.90503
H          3.40386        3.10596        0.79784
H          3.23391        3.16731       -0.96057
H          5.60926        2.31124        0.46010
H          5.32042       -1.31190       -0.17189
