17

C         -2.07860        0.65036        0.23245
C         -0.62416        0.94814        0.45880
C          0.46008        1.61443       -0.32165
C          1.47504        0.53150       -0.76256
O          1.68316       -0.39452        0.31646
N          0.88554       -1.58152        0.31740
C         -0.39983       -1.49116        0.12042
C         -1.06767       -0.26909       -0.34586
H         -2.62455        1.30834       -0.43481
H         -2.66593        0.29892        1.07324
H         -0.30009        0.80601        1.48991
H          0.96371        2.33287        0.33580
H          0.07861        2.16606       -1.18669
H          2.43476        1.00818       -0.98829
H          1.16747        0.00141       -1.67140
H         -1.01635       -2.39673        0.22770
H         -1.08369       -0.23159       -1.43438
