18

C          3.10538        0.79632       -0.81106
N          2.44849       -0.30326       -0.15301
C          3.13369       -1.20133        0.59796
N          4.33351       -1.05367        1.01668
C          4.87359       -2.02567        1.95566
C          4.31360       -3.42388        1.81827
C          3.12276       -3.50848        0.89505
O          2.37878       -2.29552        0.83646
H          2.36556        1.42919       -1.30980
H          3.80820        0.42956       -1.56550
H          3.64867        1.41779       -0.09169
H          1.62010       -0.67495       -0.59704
H          4.70561       -1.65702        2.97456
H          5.96159       -2.06065        1.82691
H          4.02980       -3.78224        2.81575
H          5.09057       -4.11769        1.47487
H          2.44675       -4.30204        1.23184
H          3.43416       -3.77256       -0.12282
