17

C          0.91628       -0.06887       -0.00893
N          2.37734       -0.01058        0.10324
C          2.79701        1.31685        0.58138
C          4.30414        1.44419        0.53857
O          5.01958        1.25713        1.52052
C          2.88897       -1.13403        0.92367
C          2.45183       -1.08008        2.37469
O          1.42794       -1.61109        2.79961
H          0.56330        0.66921       -0.73786
H          0.41238        0.13030        0.94322
H          0.59252       -1.04894       -0.37643
H          2.44755        1.52914        1.59788
H          2.40298        2.10407       -0.07263
H          4.73974        1.65022       -0.45425
H          3.98315       -1.17661        0.89851
H          2.55112       -2.08727        0.49914
H          3.08690       -0.47017        3.03949
