15

C          0.96002        0.05026        0.07627
N          2.42151        0.04652        0.07320
C          3.03106        1.03523        0.84193
O          2.46532        1.89480        1.51007
C          3.11889       -0.91341       -0.67302
C          4.45799       -1.01077       -0.75039
C          2.40448       -1.96621       -1.48956
O          1.18968       -2.08943       -1.58495
H          0.55159        0.85190        0.69893
H          0.59358       -0.89605        0.48574
H          0.59342        0.21277       -0.94190
H          4.12728        1.01006        0.82272
H          5.14675       -0.35072       -0.23917
H          4.94982       -1.77649       -1.34561
H          3.06475       -2.66510       -2.03180
