16

C          0.95829       -0.01030        0.08631
C          2.43329        0.15270        0.08548
C          3.24460        1.26643        0.10244
N          2.82012        2.53862        0.13189
C          4.57975        0.81536        0.08544
O          5.70587        1.54237        0.09815
C          4.57612       -0.55251        0.06123
N          3.26433       -0.94968        0.06454
H          0.44354        0.95490        0.08454
H          0.63491       -0.56250        0.97468
H          0.63453       -0.56442       -0.80099
H          1.83708        2.76476        0.02629
H          3.43143        3.32958       -0.02736
H          5.46329        2.47879        0.16633
H          5.38260       -1.27188        0.04810
H          2.95147       -1.91181        0.05433
