15

C          1.00622       -0.05513        0.12733
C          2.48987       -0.16320       -0.01256
C          3.25690        0.38971       -0.96520
O          4.62096        0.15911       -0.95773
C          5.28854        1.05245       -1.85296
O          4.66321        1.17725       -3.13459
N          3.34206        1.68753       -3.06401
C          2.68573        1.24384       -2.03993
H          0.69428       -0.49104        1.08223
H          0.50309       -0.60872       -0.67063
H          0.67262        0.98639        0.12201
H          2.98684       -0.77335        0.73771
H          6.29104        0.64890       -2.02251
H          5.40207        2.04070       -1.38891
H          1.62749        1.53106       -1.93940
