14

C          0.03614        0.94554       -0.02914
N         -0.75403       -0.25433        0.09970
C          0.71285       -0.40908        0.05083
C          1.43690       -0.81064        1.32297
N          2.56988       -1.52012        1.29422
O          2.92893       -1.68874        2.62352
C          2.00854       -1.08544        3.41688
C          1.03712       -0.51092        2.64064
H          0.06488        1.60296        0.83111
H          0.01563        1.45137       -0.98663
H         -1.15660       -0.54229       -0.79345
H          1.13498       -0.80212       -0.86828
H          2.18585       -1.15960        4.47908
H          0.16461        0.03090        2.97134
