19

C          0.95670        0.01806       -0.07748
C          2.45328        0.06335       -0.08023
C          3.12360        1.23657       -0.04036
C          4.61311        1.30756       -0.08292
O          4.94969        2.11194       -1.21565
C          5.32021       -0.06838       -0.19506
N          4.57643       -1.26049        0.22134
C          3.16274       -1.26195       -0.15121
H          0.51214        1.01525       -0.06593
H          0.59491       -0.51784        0.80700
H          0.59185       -0.49895       -0.97122
H          2.58749        2.17811        0.00719
H          4.95940        1.83051        0.81287
H          4.58135        1.65806       -1.99389
H          6.22509       -0.01962        0.42405
H          5.69251       -0.22036       -1.21465
H          4.64738       -1.36837        1.23127
H          2.65931       -1.96356        0.52788
H          3.04626       -1.67401       -1.15938
