19

C          1.78871        1.20646        0.48674
C          2.63987        0.05912       -0.03650
C          3.09303        0.32133       -1.44555
C          4.38147        0.39962       -1.80682
N          4.87462        0.64537       -3.07896
C          4.03736        0.88021       -4.24239
C          6.25022        0.69098       -3.30804
O          6.79374        0.90538       -4.38579
H          1.44595        0.99170        1.50382
H          0.90458        1.36264       -0.14104
H          2.35834        2.14172        0.51059
H          2.05116       -0.86547       -0.02316
H          3.49281       -0.09404        0.63469
H          2.28927        0.43821       -2.16346
H          5.14212        0.26139       -1.03830
H          2.96896        0.84105       -4.03207
H          4.27162        0.12772       -5.00295
H          4.27519        1.86757       -4.65271
H          6.84587        0.50991       -2.39756
