19

C          1.02956        0.02596       -0.08236
N          2.48656       -0.00925       -0.07370
C          2.97693       -1.28628        0.45386
C          4.50791       -1.29914        0.43377
C          5.07016       -2.61111        0.98839
O          4.60795       -3.70973        0.20923
C          6.54159       -2.60625        0.97809
C          7.74276       -2.61253        0.96608
H          0.69098        0.98220       -0.49312
H          0.62008       -0.07066        0.92840
H          0.61708       -0.76754       -0.71395
H          2.83649        0.75765        0.50009
H          2.59256       -2.10846       -0.16082
H          2.62083       -1.43260        1.48064
H          4.89609       -0.45565        1.02004
H          4.85028       -1.15714       -0.60046
H          4.71230       -2.76406        2.01254
H          5.02138       -3.62560       -0.66754
H          8.80862       -2.62594        0.95674
