21

C          0.99351        0.21447        0.09735
C          2.49062       -0.03516        0.05191
C          2.95000       -1.45223        0.43922
C          2.45186       -2.57457       -0.50127
N          1.00600       -2.78973       -0.51317
O          4.39293       -1.40683        0.36614
C          5.05658       -2.23910        1.22000
C          6.38870       -2.27196        1.25127
H          0.79339        1.28925        0.03409
H          0.55299       -0.15690        1.02756
H          0.48399       -0.25192       -0.74988
H          2.97605        0.67282        0.73725
H          2.87493        0.22066       -0.94381
H          2.62852       -1.64984        1.47166
H          2.93023       -3.51866       -0.21360
H          2.79424       -2.36982       -1.52259
H          0.67835       -3.03558        0.41914
H          0.78673       -3.58054       -1.11787
H          4.44599       -2.86236        1.85568
H          6.97779       -1.63402        0.59745
H          6.92147       -2.93252        1.92566
