20

C          0.99860        0.27790        0.03105
C          2.45974       -0.13061        0.06884
N          3.14383        0.17045        1.32937
C          4.50881       -0.00396        1.48108
N          5.30774       -0.13684        0.47299
C          5.25600        0.04366        2.82095
C          4.66575       -0.47698        4.11669
O          4.04729        0.57491        4.85213
H          0.56913       -0.00868       -0.93808
H          0.88024        1.36156        0.12554
H          0.40872       -0.21086        0.81096
H          2.94696        0.40144       -0.75644
H          2.53854       -1.20441       -0.13113
H          2.57885        0.12859        2.16937
H          4.79872       -0.08827       -0.40302
H          5.59863        1.07749        2.94730
H          6.15625       -0.56624        2.65044
H          5.48242       -0.85734        4.74806
H          3.94881       -1.28946        3.98489
H          4.71411        1.27834        4.96388
