19

C          0.90853        0.58399        2.14408
N          2.36063        0.60684        2.17543
C          2.91938        1.22799        0.96994
C          4.45162        1.11506        0.97112
O          4.84917       -0.28490        1.07377
C          5.14522        1.94224       -0.13089
O          5.88937        2.71438        0.83641
C          5.16595        2.09166        1.92681
H          0.53120        0.13203        3.06660
H          0.53319       -0.00561        1.30125
H          0.49853        1.59658        2.08132
H          2.72708       -0.34331        2.26505
H          2.61282        2.27950        0.91780
H          2.52944        0.72606        0.07522
H          4.44585       -0.72114        0.30456
H          4.49858        2.58595       -0.73433
H          5.81142        1.37872       -0.79169
H          4.53218        2.81950        2.44281
H          5.84765        1.62895        2.64644
