15

C          0.91728        0.05830        0.04940
C          2.39263       -0.05599        0.06626
N          3.16178        1.03752        0.13370
O          4.46722        0.58003        0.13349
C          4.47155       -0.77813        0.06812
C          5.79170       -1.43434        0.06254
O          5.85683       -2.28616        1.20039
C          3.17528       -1.23096        0.02260
H          0.59219        1.10384        0.04359
H          0.48841       -0.42478        0.93315
H          0.50708       -0.42762       -0.84164
H          6.61461       -0.71512        0.11357
H          5.91844       -2.04589       -0.83528
H          5.75271       -1.71481        1.98166
H          2.84790       -2.25871       -0.02842
