19

C          1.07003       -0.13379       -0.05077
C          2.58569        0.01727       -0.16675
C          3.02223        0.10137       -1.62994
N          3.05049        1.16222        0.62726
O          2.52323        2.39091        0.16866
C          4.30730        1.19940        1.19806
C          4.71769        2.49645        1.85643
O          5.04228        0.21141        1.27009
H          0.72976       -1.04691       -0.54924
H          0.54408        0.71462       -0.50181
H          0.76951       -0.18769        1.00166
H          3.04277       -0.88213        0.26284
H          2.60619        0.98574       -2.12453
H          2.68553       -0.78143       -2.18441
H          4.11292        0.15614       -1.71310
H          1.82205        2.55799        0.82517
H          4.04224        3.32766        1.64816
H          5.71840        2.77338        1.51491
H          4.73227        2.34057        2.93974
