17

C          0.72602        0.10830       -0.23884
C          2.19748        0.04224        0.04081
C          3.12186       -0.71631       -0.87514
C          3.13513        0.78770       -0.87562
O          2.57108        0.08851        1.43854
N          1.98224       -1.01463        2.08422
C          1.20878       -0.71068        3.16295
O          0.80334       -1.53919        3.96764
H          0.51804        0.16919       -1.31209
H          0.28703        0.98768        0.24373
H          0.21597       -0.78309        0.14119
H          2.69677       -1.22004       -1.73517
H          3.97778       -1.22032       -0.44456
H          2.71752        1.30093       -1.73649
H          3.98576        1.29185       -0.43431
H          2.48250       -1.89355        2.06805
H          0.95615        0.36009        3.23182
