21

C          1.99194       -0.45969        1.22423
C          2.40470        0.28034       -0.03695
C          3.36370        1.40593        0.22820
C          3.77805        2.21736       -0.97107
C          3.07025        2.90085        0.16835
N          1.68405        3.38207       -0.05736
C          3.92824        3.84596        1.00570
O          3.13792        4.40562        2.05011
H          1.43630       -1.36627        0.96114
H          1.35083        0.16280        1.85522
H          2.86332       -0.76058        1.81494
H          1.50987        0.61496       -0.57186
H          2.90932       -0.43541       -0.69707
H          4.15535        1.08850        0.90219
H          3.24397        2.07452       -1.90497
H          4.84072        2.38883       -1.11162
H          1.14144        2.70070       -0.58479
H          1.70163        4.22028       -0.64383
H          4.29378        4.66869        0.38013
H          4.79078        3.34108        1.45178
H          2.21628        4.30172        1.73810
