16

C          1.26521       -0.00342        0.18977
N          2.70856        0.12236        0.04262
C          3.22538        1.30484        0.07649
C          2.48914        2.58481        0.28436
C          3.43183        3.53043        0.23568
C          4.81130        3.01377       -0.01364
N          4.58151        1.57403       -0.10846
O          5.39908        0.84971        0.77463
H          0.98161       -1.05175        0.05665
H          0.72532        0.57010       -0.57746
H          0.93101        0.30520        1.18474
H          1.43560        2.68992        0.46500
H          3.23256        4.58555        0.37137
H          5.49313        3.27608        0.80148
H          5.20780        3.38869       -0.96247
H          5.82008        0.20264        0.17957
