16

C         -0.52883        0.49610        0.00187
C          1.01083        0.28528        0.00531
C          1.19830       -1.01784       -0.00133
C         -0.08883       -1.41383       -0.01535
C         -1.35561       -0.98143        0.02530
C         -1.95099       -2.89407        0.02131
C         -0.72046       -3.47768        0.01307
C         -1.15498       -2.19188       -0.00799
H         -0.75562        1.09704       -0.89370
H         -0.75787        1.09760        0.89174
H          1.82028        0.99743        0.00519
H          2.03224       -1.68930        0.00189
H         -2.26176       -3.96350        0.01877
H          0.17443       -4.04764        0.00776
H         -1.75455       -1.95301        1.37324
H         -1.75911       -1.96126       -1.36923
