21

C          1.01803        0.05015       -0.10403
C          2.54164        0.01897       -0.09059
O          2.96089       -0.49567        1.17431
C          3.09276       -0.85319       -1.22721
C          4.59664       -0.83466       -1.27550
C          5.30581       -1.57190       -2.38309
C          5.32743       -0.07013       -2.34798
N          6.57287        0.61336       -2.01891
H          0.64072        0.64163        0.73704
H          0.60454       -0.95739        0.01159
H          0.63664        0.48060       -1.03437
H          2.93045        1.03976       -0.17363
H          2.67197       -1.42253        1.23052
H          2.67753       -0.51758       -2.18511
H          2.77537       -1.89290       -1.07740
H          5.04113       -0.91004       -0.28873
H          4.71469       -2.04690       -3.15732
H          6.21198       -2.11172       -2.13388
H          4.73418        0.43079       -3.11016
H          7.08937        0.11551       -1.29504
H          6.38086        1.53609       -1.63067
