16

C          1.12205        0.10979       -0.11491
C          2.55750       -0.08633        0.22910
N          3.35195        0.87226        0.60555
N          4.60508        0.38921        0.92370
C          5.31678        0.01719       -0.29609
C          4.59202       -1.02846        0.52030
C          3.20204       -1.44191        0.19388
O          2.67532       -2.28583        1.19910
H          0.89680        1.17434       -0.21760
H          0.50189       -0.31350        0.67972
H          0.89625       -0.39939       -1.05520
H          6.39687        0.05746       -0.22626
H          4.91510        0.35215       -1.24411
H          5.16689       -1.72252        1.11486
H          3.10795       -1.90695       -0.79045
H          2.82576       -1.83128        2.04929
