21

C          2.78143        0.99795        1.01151
N          2.42795        0.02581       -0.01404
C          3.02908       -1.28628        0.22985
C          2.56348       -2.02949        1.47653
O          2.88296       -3.40558        1.23087
C          2.71130       -3.63694       -0.17717
C          3.83771       -4.52564       -0.67471
C          2.65821       -2.27476       -0.86503
H          2.32780        1.96353        0.76531
H          3.86466        1.14166        1.07248
H          2.40014        0.70443        1.99433
H          2.73450        0.37337       -0.92302
H          4.12414       -1.20061        0.25013
H          1.48049       -1.95142        1.62584
H          3.07032       -1.69349        2.38624
H          1.75754       -4.15939       -0.31267
H          4.81280       -4.05579       -0.52044
H          3.71807       -4.75120       -1.74040
H          3.84845       -5.47079       -0.12106
H          1.63684       -2.10147       -1.22807
H          3.31904       -2.19913       -1.73584
