19

C          1.10292        0.02338        0.00660
C          2.59264        0.05240        0.00975
C          3.37361       -0.73287       -1.00791
C          3.32957        0.77097       -1.08949
N          4.52505        1.56426       -0.81972
C          4.44074        2.77456       -0.21233
N          5.65322        3.30695        0.04848
N          3.39181        3.44346        0.10575
H          0.73645       -0.67883        0.76326
H          0.69734       -0.28430       -0.96336
H          0.70458        1.01509        0.24264
H          2.99046        0.13210        1.01517
H          2.83402       -1.29255       -1.76385
H          4.28728       -1.21221       -0.67733
H          2.73778        1.19414       -1.89949
H          5.38114        1.06825       -0.59663
H          6.27266        3.28915       -0.75198
H          5.52762        4.26237        0.37165
H          2.56795        2.89559       -0.15280
