20

C          0.93700       -0.02969        0.07011
C          2.45830       -0.01924       -0.02175
C          2.91858        0.55287       -1.36061
N          3.01822        0.73709        1.08379
C          4.27825        0.50415        1.58834
O          5.00185       -0.42081        1.23081
C          4.68564        1.48469        2.69248
N          4.02982        2.79694        2.50253
H          0.50173       -0.64345       -0.72507
H          0.52563        0.98237       -0.01381
H          0.61090       -0.43945        1.03238
H          2.82239       -1.05061        0.05577
H          2.58969        1.59065       -1.48418
H          2.51493       -0.03291       -2.19329
H          4.01076        0.54149       -1.43989
H          2.59108        1.61056        1.38470
H          5.77186        1.61376        2.66354
H          4.39412        1.05883        3.65732
H          4.34116        3.17502        1.60556
H          4.40350        3.43535        3.20635
