14

C          1.43993        0.69151       -0.86202
C          2.32640        0.10816       -0.04420
C          3.14393        0.83838        0.98859
C          4.60842        0.68669        0.76741
N          5.32440        1.55168        0.03260
O          6.62067        1.03649        0.10960
C          6.54409       -0.07368        0.88676
N          5.33758       -0.33979        1.32094
H          0.88084        0.10522       -1.58502
H          1.25661        1.76174       -0.83780
H          2.47679       -0.96877       -0.10844
H          2.88897        0.43751        1.97714
H          2.88356        1.90388        1.01004
H          7.46386       -0.60900        1.06373
