18

C          1.14177        0.15885        0.00671
N          2.58006       -0.03105       -0.10323
C          3.02471       -1.08558       -0.68894
C          2.21118       -2.19596       -1.30130
N          4.39264       -1.15806       -0.73471
C          5.20884       -2.13688       -1.27948
C          6.68033       -1.84129       -1.13506
O          4.82039       -3.15998       -1.83340
H          0.94634        1.09997        0.53028
H          0.67360       -0.64022        0.59071
H          0.66962        0.23204       -0.97842
H          1.13646       -2.03204       -1.21123
H          2.44777       -3.14048       -0.80333
H          2.44777       -2.27800       -2.36617
H          4.82403       -0.35733       -0.29444
H          6.86376       -0.88949       -0.62956
H          7.13309       -1.79791       -2.12956
H          7.14806       -2.63945       -0.55213
