15

C          1.03569       -0.00327        0.13468
C          2.56405       -0.00829        0.08939
O          2.99124        0.63534       -1.12700
C          3.15120       -0.06617       -2.26345
N          2.88915       -1.38966       -2.29516
N          3.54662        0.56298       -3.30761
C          3.07071        0.74805        1.30662
N          3.49103        1.37549        2.31642
H          0.60450       -0.52969       -0.72157
H          0.64965        1.02276        0.09379
H          0.66214       -0.46972        1.05245
H          2.95327       -1.03094        0.15336
H          2.04107       -1.70255       -1.84553
H          2.92273       -1.71838       -3.25743
H          3.67824        1.54254       -3.02932
