18

C          1.81350       -0.56779       -0.82502
C          2.74224       -0.96931        0.04231
C          2.92189       -0.66605        1.50593
C          4.38461       -0.17867        1.45398
C          5.03455       -1.13356        0.40704
C          3.83939       -1.99723       -0.05471
C          3.46466       -2.87914        1.12072
C          2.92381       -2.07903        2.06214
H          1.03779        0.13136       -0.52519
H          1.77042       -0.96956       -1.83169
H          2.20135        0.01872        1.95168
H          4.89004       -0.24069        2.42540
H          4.45357        0.86006        1.10179
H          5.83262       -1.73390        0.86212
H          5.46978       -0.55768       -0.41692
H          3.95109       -2.50821       -1.01064
H          3.63275       -3.94221        1.19006
H          2.56897       -2.36655        3.03487
