16

C         -2.05765        0.64833        0.19306
C         -0.62102        1.00446        0.53958
C          0.51098        1.66457       -0.17716
C          1.43113        0.59515       -0.81191
O          1.68079       -0.56229        0.03965
C          0.67448       -1.36621        0.51386
N         -0.61797       -1.20961        0.45511
N         -0.99854       -0.17140       -0.29184
H         -2.56776        1.26375       -0.53623
H         -2.69453        0.23519        0.96516
H         -0.37665        0.86507        1.59213
H          1.08942        2.24313        0.55262
H          0.15588        2.36351       -0.94221
H          2.40535        1.04522       -1.03121
H          1.03622        0.23261       -1.76898
H          1.11700       -2.20969        1.06584
