15

C          1.10467       -0.10127        0.03110
C          2.56573        0.10119        0.02784
C          3.39105        1.20432        0.02507
N          3.01699        2.49211        0.02516
C          4.71913        0.72867        0.02139
C          4.61987       -0.64269        0.02285
O          5.49015       -1.63610        0.02080
O          3.32304       -1.03652        0.02697
H          0.56893        0.85261        0.03286
H          0.79882       -0.66309        0.91902
H          0.79472       -0.66213       -0.85600
H          2.04436        2.78099        0.05514
H          3.68124        3.25886        0.05111
H          5.62984        1.30661        0.01780
H          6.37072       -1.22924        0.01636
