17

C          1.39611       -0.24016       -0.50255
C          2.49130       -0.13634        0.51589
C          3.18406       -1.31767        1.16776
C          4.39390       -1.46287        0.26062
C          3.50503       -1.59977       -0.97208
C          2.67381       -2.80685       -0.50610
O          2.41915       -2.52405        0.90086
N          2.77233       -0.28636       -0.96856
H          0.85246        0.66868       -0.74247
H          0.76400       -1.11654       -0.53519
H          2.77464        0.82577        0.92115
H          3.38976       -1.19895        2.23328
H          4.98171       -2.36450        0.46367
H          5.04868       -0.58482        0.24104
H          4.04017       -1.76243       -1.91000
H          3.24922       -3.73801       -0.55685
H          1.73438       -2.95238       -1.04579
