16

C          2.81198        0.27497       -1.22996
C          2.40894       -0.19319        0.15794
C          3.03076       -1.52830        0.50065
O          2.23355       -2.59862        0.76048
N          0.93681       -2.47391        0.23621
C          0.26645       -3.51567        0.59885
N          4.32572       -1.61738        0.60919
O          4.71072       -2.92108        0.96133
H          2.38344        1.26157       -1.43529
H          2.46154       -0.41970       -1.99948
H          3.90028        0.35750       -1.32291
H          1.32033       -0.20040        0.24355
H          2.76544        0.53004        0.90111
H         -0.77926       -3.63736        0.27145
H          0.68602       -4.31219        1.23473
H          5.68353       -2.85508        0.98067
