19

C          0.98397        0.03765       -0.00339
C          2.48858       -0.12379       -0.02538
N          3.16511        0.86545        0.83131
C          4.06379       -0.03834        1.31654
O          5.13078        0.13674        1.84926
C          3.17533       -1.23080        0.85233
C          2.37514       -1.85840        1.99037
C          3.89885       -2.28454        0.01896
H          0.68236        0.91855       -0.57982
H          0.58861        0.14966        1.01076
H          0.50383       -0.83484       -0.45905
H          2.87247       -0.06469       -1.05349
H          3.51777        1.78012        0.58433
H          1.90373       -1.09897        2.62381
H          3.02305       -2.46304        2.63431
H          1.58454       -2.50763        1.59999
H          4.51751       -1.82927       -0.76148
H          3.17967       -2.95094       -0.46839
H          4.55519       -2.89528        0.64777
