18

C          0.87575        0.00187        0.10078
C          2.39719       -0.01263        0.03171
C          2.88977        0.10679       -1.41136
C          3.02266        1.04000        0.94284
O          4.31201        0.54300        1.35571
N          4.21528       -0.85545        1.27093
C          3.03388       -1.20436        0.68262
N          2.50023       -2.37536        0.66607
H          0.47440        0.95241       -0.26712
H          0.51938       -0.14066        1.12729
H          0.44408       -0.80360       -0.50406
H          2.53968        1.03810       -1.86961
H          2.52454       -0.72857       -2.01963
H          3.98413        0.09522       -1.47314
H          2.43301        1.20882        1.85217
H          3.15965        2.00350        0.44149
H          4.49601       -1.35339        2.10931
H          3.11539       -3.03963        1.14385
