21

C          1.51115       -0.43578        0.53035
C          2.71422        0.35873       -0.02633
C          2.78763        0.06837       -1.54313
C          2.44884        1.87523        0.22391
N          3.51636        2.78524       -0.18376
C          4.03224       -0.06628        0.61138
C          4.28745        0.02264        2.09778
O          3.98670       -1.22259        1.45787
H          1.60260       -1.50556        0.30872
H          0.57012       -0.08762        0.08923
H          1.42345       -0.32840        1.61703
H          3.06785       -0.97628       -1.72654
H          3.53783        0.68817       -2.04448
H          1.82345        0.24817       -2.03119
H          1.53018        2.17387       -0.29564
H          2.26368        2.04254        1.29338
H          3.73181        2.65586       -1.17064
H          4.37022        2.57324        0.32902
H          4.88733        0.03997       -0.04628
H          3.53477        0.45886        2.74204
H          5.30692        0.17529        2.43377
