18

C          1.64084       -0.80749        0.80893
N          2.51400        0.01290       -0.00460
C          3.21283       -0.58294       -1.13603
C          2.26286       -1.07451       -2.18964
C          1.31583       -0.15083       -2.91415
N          2.47301       -0.72076       -3.59835
C          2.57745        1.37429        0.20917
O          3.21180        2.17773       -0.46388
H          1.89621       -1.86440        0.70124
H          0.60668       -0.63585        0.49653
H          1.74242       -0.51421        1.85825
H          3.80688       -1.42087       -0.75385
H          3.92099        0.14004       -1.55668
H          1.93412       -2.09131       -2.00886
H          1.34682        0.91188       -2.70725
H          0.35364       -0.54232       -3.21975
H          3.19925       -0.00630       -3.70385
H          1.98808        1.69677        1.08293
