16

C          1.04711       -0.01436        0.04713
C          2.57079       -0.05188        0.03754
O          3.02987        1.17512       -0.59616
C          3.78674        1.15989       -1.71663
N          4.12343        2.29195       -2.22405
N          4.14870       -0.04042       -2.22858
C          3.82914       -1.24756       -1.69694
C          3.07239       -1.31620       -0.60207
H          0.69016        0.91050        0.51358
H          0.62698       -0.86424        0.59468
H          0.64638       -0.02541       -0.97316
H          2.93567       -0.01590        1.07026
H          3.70499        3.00326       -1.61386
H          4.72870       -0.00755       -3.05664
H          4.22121       -2.11881       -2.21051
H          2.81205       -2.27199       -0.16106
