15

C          1.03792        0.07303        0.02936
C          2.56170        0.03994        0.02655
O          3.02164        1.25799       -0.59664
C          3.76821        1.26669       -1.73073
O          4.10984        2.31298       -2.27207
N          4.14007        0.05349       -2.24578
C          3.82467       -1.15484       -1.71559
C          3.07021       -1.20763       -0.62136
H          0.67626        0.99526        0.49738
H          0.61773       -0.77992        0.57219
H          0.64137        0.06434       -0.99264
H          2.92060        0.06764        1.06159
H          4.70759        0.11248       -3.08215
H          4.20684       -2.03685       -2.21913
H          2.80998       -2.16422       -0.17965
