23

C          0.81602       -0.01019       -0.15109
C          2.31658        0.01126        0.07481
O          2.96481       -0.06481       -1.19230
C          4.40896       -0.05549       -1.18317
C          4.96679        1.22038       -0.53373
C          4.95674       -1.29984       -0.46665
C          4.85456       -0.13428       -2.67588
N          4.40187        1.00790       -3.48159
H          0.27966        0.04493        0.80092
H          0.51610       -0.92506       -0.67250
H          0.50810        0.83264       -0.77889
H          2.59230       -0.84235        0.70025
H          2.58287        0.93983        0.58716
H          4.78077        1.23540        0.54544
H          4.49171        2.11744       -0.94536
H          6.04954        1.29814       -0.67789
H          4.75135       -1.27212        0.60804
H          6.04171       -1.38518       -0.58959
H          4.48857       -2.21060       -0.85690
H          4.44029       -1.04428       -3.12759
H          5.94641       -0.19430       -2.74508
H          3.38969        1.07965       -3.35683
H          4.55764        0.80467       -4.46705
