21

C          1.29370       -0.94096        0.30421
N          2.39725       -0.00521        0.12862
C          2.82492       -0.01543       -1.28024
C          3.99178        0.97427       -1.53886
C          4.82233        1.58506       -0.41971
O          4.75027       -0.09504       -2.19147
C          3.90158       -1.09042       -1.54224
C          3.53575       -2.20768       -2.49708
H          0.95079       -0.90935        1.34249
H          1.59718       -1.96992        0.08206
H          0.44241       -0.67543       -0.33057
H          3.13348       -0.22302        0.80171
H          2.02377        0.05779       -2.02509
H          3.71716        1.74579       -2.27046
H          5.22122        0.82173        0.25598
H          4.22450        2.28735        0.16970
H          5.67169        2.13732       -0.83489
H          4.41335       -1.48249       -0.65196
H          3.06242       -1.82391       -3.40675
H          2.84035       -2.90530       -2.02030
H          4.42711       -2.77184       -2.78965
