17

C          0.93771        0.09322        0.09375
N          2.39778        0.06184        0.07538
C          3.09756       -1.01691       -0.45646
C          2.59535       -2.13205       -0.99621
C          3.13094        1.13265        0.62457
O          4.36582        1.16304        0.69052
C          2.32552        2.31118        1.20057
O          3.15201        3.36445        1.67840
H          0.47177       -0.78660       -0.34892
H          0.59305        0.97148       -0.46012
H          0.59840        0.17087        1.13134
H          4.18497       -0.92329       -0.41887
H          1.54054       -2.35145       -1.09339
H          3.27232       -2.89423       -1.37300
H          1.72396        1.95728        2.04099
H          1.67860        2.73295        0.42729
H          4.02487        2.96012        1.85535
