19

C          1.13831       -0.68547        0.40546
C          2.46708       -0.05185        0.02487
C          2.98110        0.84525        1.11083
N          4.21098        1.59465        0.88954
C          2.95559        2.35510        0.96043
C          2.74597        3.29523        2.13594
C          3.66090        4.45828        2.43396
O          2.40600        4.64722        1.77441
H          0.78053       -1.33446       -0.39996
H          0.37797        0.07832        0.59749
H          1.24037       -1.29290        1.31114
H          2.34383        0.50110       -0.91439
H          3.19875       -0.84584       -0.16294
H          2.88487        0.41470        2.10107
H          4.52601        1.52461       -0.07861
H          2.61157        2.74472        0.00374
H          2.20966        2.87729        2.98208
H          4.56333        4.56121        1.84558
H          3.74659        4.78930        3.46054
