18

C          1.05195       -0.07146       -0.06937
N          2.51769       -0.15446        0.00884
C          2.92816       -0.36813        1.41717
C          4.44928       -0.32966        1.64157
O          5.00065        0.89255        1.16105
C          3.03075       -1.18715       -0.92684
C          2.61657       -2.58203       -0.65570
N          2.28549       -3.67169       -0.43210
H          0.68464        0.77839        0.51604
H          0.55962       -0.97689        0.30445
H          0.72568        0.09627       -1.10188
H          2.52363       -1.30552        1.81645
H          2.50045        0.44986        2.01214
H          4.95607       -1.15827        1.13933
H          4.67078       -0.40477        2.71075
H          4.51909        1.10508        0.33959
H          4.12451       -1.13583       -0.95647
H          2.71597       -0.91745       -1.94344
