20

C          1.09018        0.07454        0.03033
C          2.61200        0.12812        0.00587
C          3.10908        0.98742       -1.14945
O          3.04396        0.70099        1.24570
N          4.33396        0.23434        1.54637
C          4.68684        0.70899        2.69744
C          6.02594        0.36539        3.29955
N          6.81269        1.59120        3.43949
H          0.69205       -0.35589       -0.89361
H          0.66235        1.07402        0.16597
H          0.74461       -0.53226        0.87438
H          2.99737       -0.89491       -0.09052
H          2.77176        2.02413       -1.04102
H          2.75672        0.60156       -2.11102
H          4.20372        1.01326       -1.16800
H          4.02734        1.37311        3.28474
H          6.55262       -0.35541        2.66714
H          5.85410       -0.07739        4.28452
H          6.99539        1.96974        2.50868
H          7.72643        1.35346        3.82418
