13

C          0.95029        0.01066       -0.06097
C          2.27549       -0.11760       -0.06245
C          3.23693        1.00611       -0.06506
N          4.47698        0.60171       -0.06653
C          4.38823       -0.78241       -0.06477
C          3.13508       -1.26278       -0.06226
C          2.78301       -2.68572       -0.05954
O          1.62902       -3.09684       -0.05679
H          0.47131        0.98386       -0.06147
H          0.30150       -0.86113       -0.05920
H          2.89444        2.05049       -0.06554
H          5.29727       -1.37176       -0.06545
H          3.63759       -3.38289       -0.06006
