19

C          0.57743        0.01056        0.94389
C          1.75178       -0.66272        0.21486
C          1.28048       -1.15516       -1.15924
N          2.22213       -1.76461        1.06981
C          3.40867       -2.45867        0.57657
C          3.50202       -1.57075        1.78947
C          4.20504       -0.27081        1.71942
O          5.13654       -0.08089        0.93783
H          0.01894       -0.70127        1.56547
H         -0.13819        0.44954        0.24134
H          0.93771        0.80669        1.60297
H          2.51511        0.09967        0.02604
H          1.16663       -0.29706       -1.83339
H          2.00334       -1.82804       -1.63271
H          0.31663       -1.67101       -1.10516
H          3.88145       -2.12550       -0.33951
H          3.42278       -3.53001        0.73255
H          3.56093       -2.06511        2.75352
H          3.85246        0.51019        2.40456
