23

C          2.88145       -1.46436       -0.57687
C          2.50850       -0.11161        0.02117
O          1.08504        0.00535        0.05464
C          3.08632        0.16689        1.42944
C          2.57532       -0.82619        2.48440
C          4.62889        0.20341        1.47016
C          5.23618        1.28664        0.57693
N          6.69034        1.26270        0.67631
H          2.40922       -1.58437       -1.55835
H          2.51784       -2.29257        0.03927
H          3.96231       -1.56797       -0.70530
H          2.84338        0.67066       -0.66693
H          0.72430       -0.78504        0.49108
H          2.71630        1.15428        1.74010
H          2.91347       -1.84638        2.27789
H          1.48228       -0.83000        2.53618
H          2.94292       -0.55242        3.47965
H          5.03468       -0.77841        1.19604
H          4.94709        0.38549        2.50593
H          4.86524        2.27340        0.87416
H          4.96838        1.12671       -0.47211
H          6.97277        1.45450        1.63670
H          7.08059        2.01578        0.11154
