18

C          1.22900        0.37756       -0.79044
N          2.25406       -0.11750        0.12151
C          2.87323       -1.36534       -0.35438
C          4.01606       -1.82143        0.56941
N          4.15368       -3.27022        0.36046
C          2.77523       -3.77574        0.27147
C          1.98407       -2.59138       -0.24715
O          0.79250       -2.64598       -0.53073
H          0.94163        1.38968       -0.48369
H          0.32427       -0.23464       -0.76548
H          1.59521        0.44068       -1.81962
H          1.82969       -0.26783        1.03601
H          3.23885       -1.27940       -1.38490
H          3.77579       -1.63130        1.62467
H          4.95098       -1.30139        0.33954
H          4.64382       -3.70271        1.14308
H          2.39253       -4.05093        1.25878
H          2.71554       -4.61393       -0.42452
