14

C          2.78089        0.38768        0.94696
C          2.23707       -0.02332       -0.20547
C          3.07513       -0.45278       -1.36380
C          2.30069       -0.90066       -2.58982
O          1.18401       -0.46370       -2.83070
N          4.37663       -0.45988       -1.32448
N          4.98575       -0.88522       -2.50013
C          6.27069       -0.82359       -2.39273
H          2.15081        0.69784        1.77432
H          3.85594        0.42936        1.09405
H          1.15979       -0.05255       -0.33544
H          2.80038       -1.65922       -3.21107
H          6.90598       -1.12509       -3.23998
H          6.78420       -0.47835       -1.47918
