16

C          0.89217       -0.12042        0.27922
N          2.29990        0.24898        0.16185
C          2.71998        1.53299        0.43483
C          3.95242        1.93398        0.12821
C          4.86040        0.97527       -0.56098
O          4.49021       -0.40743       -0.37970
C          3.20248       -0.75124       -0.13751
N          2.94396       -2.01336       -0.18825
H          0.24655        0.76292        0.33871
H          0.72192       -0.72926        1.17153
H          0.57181       -0.68583       -0.60467
H          1.99196        2.19135        0.89737
H          4.28922        2.94498        0.32804
H          5.87794        1.08661       -0.17694
H          4.88126        1.18028       -1.63748
H          3.83872       -2.46481       -0.41116
