18

C          2.32385        1.30480       -0.43670
C          2.53240       -0.10519        0.08132
N          3.10984       -0.10884        1.40885
C          4.47004       -0.06413        1.60150
O          5.29177        0.00018        0.69857
C          4.85342       -0.11061        3.03641
C          6.14541       -0.17518        3.37873
N          6.66299       -0.30251        4.64372
H          1.88935        1.28425       -1.43962
H          3.27006        1.85346       -0.48272
H          1.64706        1.86471        0.21977
H          3.18429       -0.66269       -0.60054
H          1.57554       -0.63168        0.14272
H          2.48438       -0.11572        2.20278
H          4.07249       -0.14369        3.78450
H          6.91835       -0.16051        2.60862
H          6.05203       -0.03217        5.40617
H          7.62324        0.01853        4.74516
