18

C          1.00213       -0.08346        0.21686
C          2.50991       -0.08001       -0.03333
N          3.02378       -1.43175       -0.37536
C          2.65242       -1.82363       -1.73873
C          3.16145       -0.80534       -2.76325
N          2.83101        0.56143       -2.41947
C          2.84314        0.97367       -1.10785
O          2.98520        2.16682       -0.84414
H          0.72504       -0.83026        0.96798
H          0.43243       -0.28430       -0.69682
H          0.67665        0.89654        0.58398
H          3.02285        0.22671        0.88528
H          2.65105       -2.10759        0.29002
H          1.56546       -1.93565       -1.82032
H          3.08867       -2.80348       -1.96058
H          2.74112       -1.00996       -3.75250
H          4.25385       -0.85895       -2.83712
H          3.09019        1.29721       -3.06433
