17

C          1.02227       -0.00298       -0.24733
C          2.49553        0.05006        0.07809
C          2.77956        0.04952        1.57142
O          4.16663       -0.05972        1.86990
N          3.43383       -0.69925       -0.77842
C          3.38157        0.75538       -0.94497
C          4.55446        1.49492       -0.59245
C          5.56102        2.09464       -0.32611
H          0.50388       -0.72299        0.39477
H          0.83674       -0.29323       -1.28738
H          0.57029        0.98237       -0.08761
H          2.29099       -0.81544        2.03202
H          2.38552        0.95485        2.04229
H          4.55353       -0.53836        1.11056
H          2.94805       -1.15704       -1.55303
H          2.89887        1.09739       -1.85712
H          6.46748        2.59971       -0.08466
