14

C         -2.16358       -0.07103       -0.10647
C         -1.32713        1.26596        0.08853
C         -0.01052        0.65309        0.18301
C          0.00640       -0.69522        0.22898
N         -1.23021       -1.20538        0.19253
N          1.24409       -1.18001        0.09728
C          1.95470       -0.05818        0.02288
O          1.23537        1.12730        0.02805
H         -2.50478       -0.14936       -1.14571
H         -3.03393       -0.09702        0.55654
H         -1.61236        1.76545        1.01848
H         -1.45215        1.94070       -0.76091
H         -1.39264       -2.09187       -0.27264
H          3.02722        0.04247       -0.06793
