14

C          1.04135        0.12635        0.02668
C          2.55275        0.04410        0.09476
C          3.16110       -1.13288       -0.05865
C          4.59268       -1.31981        0.15662
N          5.58158       -0.49591        0.06096
O          5.29178        0.75363       -0.52396
C          4.36699        1.51232        0.11934
N          3.13983        1.24476        0.42485
H          0.58183       -0.86612       -0.01522
H          0.73044        0.68299       -0.86329
H          0.62965        0.63175        0.91042
H          2.58375       -2.03361       -0.22364
H          4.85084       -2.35019        0.44069
H          4.76654        2.52648        0.27307
