17

C          1.02489       -0.04952        0.12225
C          2.52524        0.18129        0.00722
C          3.00966        1.26909        0.90583
C          3.89201        1.20032        1.90885
C          4.10125        2.55012        2.54490
C          3.16450        3.39827        1.70011
O          2.95855        4.59498        1.81103
N          2.58161        2.55502        0.77151
H          0.72298       -0.88780       -0.51418
H          0.46015        0.83273       -0.19810
H          0.73649       -0.28452        1.15218
H          2.77834        0.42622       -1.03094
H          3.04400       -0.75563        0.24405
H          4.40151        0.30416        2.23230
H          5.13198        2.89261        2.43050
H          3.78402        2.55524        3.58982
H          1.91473        2.88789        0.08964
