17

C          1.18717       -2.27278        1.57732
N          2.58721       -1.96957        1.45559
C          3.03585       -0.72427        1.06100
O          2.25665        0.18968        0.78165
C          4.59396       -0.61051        1.00226
C          5.27754        0.39784        1.93483
C          6.21769       -0.75501        2.26767
O          5.31783       -1.71397        1.65420
H          1.07490       -3.33360        1.81441
H          0.68200       -2.04482        0.63499
H          0.75630       -1.66185        2.37553
H          3.29235       -2.65390        1.71404
H          4.93619       -0.52661       -0.03770
H          4.66690        0.73895        2.77579
H          5.74081        1.25394        1.43945
H          6.36239       -0.94885        3.33365
H          7.18430       -0.73801        1.75480
