19

C          1.04662        0.03175       -0.01767
N          2.50483        0.11656       -0.04276
C          3.00510        0.49925       -1.37680
C          2.55242        1.91235       -1.74314
O          1.97496        2.19557       -2.79243
C          4.51992        0.44331       -1.41053
C          5.30057        1.28282       -0.43245
C          5.17965       -0.33867       -2.28451
H          0.72550       -0.37704        0.94556
H          0.66226       -0.62622       -0.80398
H          0.58695        1.02004       -0.11771
H          2.87917       -0.81065        0.16487
H          2.59273       -0.18599       -2.12925
H          2.77889        2.69768       -1.00233
H          4.65082        1.81491        0.26903
H          5.89177        2.03506       -0.96591
H          5.97616        0.65764        0.16087
H          4.65684       -0.96102       -3.00634
H          6.26513       -0.37515       -2.30373
