18

C          0.97825       -0.03524        0.00225
N          2.41037        0.12935       -0.01730
C          3.13789        0.91069        0.84578
N          2.59351        1.70192        1.71580
C          4.62529        0.89136        0.84214
C          5.32258        0.50476       -0.22991
O          6.69212        0.49148       -0.23968
C          7.21533        0.74057       -1.54175
H          0.68574       -0.80618       -0.71716
H          0.48194        0.89692       -0.28361
H          0.62763       -0.34422        0.99153
H          2.90892       -0.66783       -0.39840
H          1.57916        1.66116        1.63508
H          5.11768        1.25825        1.73589
H          4.86556        0.18130       -1.15569
H          8.30635        0.71992       -1.48120
H          6.90783        1.73045       -1.89910
H          6.89617       -0.03429       -2.24837
