17

C          0.94013        0.04004       -0.02507
C          2.45929        0.04591       -0.01975
N          3.00928       -1.04121        0.82613
C          3.77004       -0.26215        1.84608
C          4.48840        0.84433        0.95454
C          3.00472        1.29368        0.66430
C          2.85738        1.03124        2.25059
O          2.39473        1.57481        3.21714
H          0.55654       -0.83857       -0.55361
H          0.55779        0.93576       -0.52624
H          0.52341        0.03248        0.98822
H          2.84052       -0.03577       -1.04467
H          3.60030       -1.64843        0.25741
H          4.33810       -0.79018        2.60623
H          5.06687        0.48075        0.09752
H          5.10872        1.56652        1.49964
H          2.83404        2.29300        0.27503
