19

C          1.55813       -0.14201        0.42436
C          2.93804        0.09559       -0.09385
C          3.69519       -1.05100       -0.68868
C          4.16847       -0.44492        0.61037
N          5.43085        0.32733        0.59461
C          5.22666        1.78897        0.52355
C          3.78951        2.26607        0.26163
O          3.13049        1.40767       -0.67663
H          1.46428       -1.11923        0.90707
H          0.83624       -0.09966       -0.39817
H          1.28189        0.62449        1.15616
H          4.24761       -0.86401       -1.60059
H          3.26006       -2.04380       -0.64018
H          4.00618       -1.01476        1.52029
H          5.97387        0.05285       -0.22489
H          5.86744        2.17020       -0.28298
H          5.59585        2.24313        1.44799
H          3.79595        3.28071       -0.14815
H          3.21304        2.28962        1.19474
