19

C          1.01063       -0.03717        0.05602
C          2.34800       -0.04841        0.03739
C          3.24765        1.07945       -0.40251
C          4.62599        0.42191       -0.20339
C          4.85206       -0.70342       -1.22453
C          3.90507       -1.80528       -0.72322
C          3.26215       -1.15172        0.50403
N          4.39226       -0.35568        1.03456
H          0.45287        0.83084       -0.28104
H          0.44592       -0.88933        0.41948
H          3.12673        1.94641        0.25620
H          3.07568        1.36611       -1.44410
H          5.44865        1.13837       -0.14387
H          5.88826       -1.06003       -1.19819
H          4.61651       -0.39511       -2.24809
H          4.47998       -2.69608       -0.44438
H          3.17481       -2.09014       -1.48828
H          2.82282       -1.84754        1.22189
H          5.18557       -0.96666        1.22206
