16

C          3.51722        0.30408        1.02052
C          2.56444       -0.06356       -0.10071
C          2.97325       -1.35406       -0.73302
N          3.79220       -1.45079       -1.73690
N          3.98160       -2.83917       -2.02595
C          3.28294       -3.52808       -1.18399
C          2.48822       -2.68527       -0.23766
O          1.10401       -2.87303       -0.39635
H          3.18398        1.21944        1.51916
H          4.52797        0.47421        0.63438
H          3.57756       -0.49273        1.76904
H          2.56075        0.72197       -0.86338
H          1.54536       -0.16378        0.28591
H          3.24700       -4.62472       -1.14753
H          2.79014       -2.87082        0.79473
H          0.89307       -2.69649       -1.33278
