18

C          1.07111        0.03088        0.05413
C          2.55762       -0.06386        0.09495
C          3.36465       -0.78942       -0.94911
O          2.66044       -1.38557       -2.05169
C          3.38923        0.72195       -0.88705
N          4.61557        1.39600       -0.43066
N          4.23513        2.57768        0.10384
C          5.21572        3.22723        0.63726
H          0.63176       -0.67366        0.76817
H          0.65216       -0.18910       -0.93196
H          0.75193        1.03870        0.33558
H          2.91502       -0.09726        1.11819
H          4.24214       -1.32185       -0.59426
H          2.04977       -0.76578       -2.48432
H          2.85775        1.25633       -1.67149
H          5.25541        1.52174       -1.21708
H          5.02577        4.20184        1.11236
H          6.25693        2.86011        0.65495
