17

C          1.36395       -0.16529       -1.14599
N          0.67121        0.87243       -0.39404
C          0.73971       -0.47751        0.19332
C          1.60908       -0.75935        1.38300
O          1.08133       -0.10965        2.54842
C          1.38162       -1.01970        3.59948
C          1.17056       -2.35690        2.94540
O          1.66540       -2.17959        1.61590
H          2.43993       -0.05291       -1.21114
H          0.87966       -0.51920       -2.04597
H         -0.26462        1.04282       -0.76355
H         -0.19146       -1.02899        0.22008
H          2.63474       -0.40801        1.22474
H          0.73566       -0.84696        4.46248
H          2.42768       -0.87426        3.89358
H          0.10542       -2.60493        2.88008
H          1.69881       -3.17177        3.44764
