13

C          2.44527       -1.21449        0.45227
C          2.47948        0.05535        0.03149
C          3.18902        0.39808       -1.21485
N          3.82724       -0.40165       -2.00467
C          4.31433        0.38240       -3.01668
O          4.97708        0.03940       -3.97931
C          3.90322        1.77281       -2.76417
C          3.19446        1.79570       -1.63603
H          1.93028       -1.48540        1.36773
H          2.92902       -2.01438       -0.10329
H          1.99437        0.84477        0.59292
H          4.16322        2.58513       -3.41800
H          2.73308        2.63076       -1.14282
