16

C          1.05182        0.08764        0.01076
C          2.56395        0.02294       -0.08195
N          3.23905        1.08346        0.70988
C          4.27662        0.09623        1.13973
C          5.48416        0.17865        0.33180
N          6.43825        0.21412       -0.33058
C          3.28114       -1.04254        0.78602
O          3.76056       -2.23426        0.12215
H          0.66574        0.94764       -0.54684
H          0.70360        0.16893        1.04609
H          0.60616       -0.81452       -0.42124
H          2.88813        0.01269       -1.13160
H          2.68061        1.43536        1.48901
H          4.50013        0.15543        2.21154
H          2.69163       -1.34122        1.66416
H          4.20865       -1.93656       -0.69131
