21

C          1.10030        0.05442       -0.11761
C          2.59129        0.03567       -0.10582
C          3.35825       -0.72805       -1.14749
C          3.41003        0.78460       -1.14017
N          2.74147        1.50676       -2.22368
C          4.66022        1.43661       -0.68184
C          4.53710        2.42894        0.44658
C          5.86358        1.23490       -1.25101
H          0.71286       -0.63210        0.64191
H          0.68447       -0.24947       -1.08352
H          0.73252        1.05818        0.11731
H          2.96609        0.00848        0.91218
H          2.80824       -1.22674       -1.93698
H          4.22889       -1.28447       -0.81756
H          1.98955        0.95324       -2.62664
H          3.40220        1.67302       -2.98137
H          3.49038        2.66194        0.66819
H          5.03206        3.37263        0.19346
H          4.99144        2.02464        1.35711
H          5.97961        0.54790       -2.08236
H          6.75055        1.75218       -0.89777
