13

C          4.98281        0.50707        2.54804
C          4.48332        0.30053        1.36149
C          3.90104        0.05975       -0.02176
C          4.26937        1.18707       -0.90815
C          4.08402        2.54964       -0.85972
C          4.70465        3.02035       -2.02926
N          5.22018        2.02822       -2.75787
O          4.94476        0.86999       -2.04810
H          5.39604        0.67462        3.51612
H          2.81130       -0.01939        0.05253
H          4.28250       -0.89048       -0.41064
H          3.58991        3.11564       -0.08499
H          4.80627        4.03649       -2.38325
