19

C          1.16733       -0.26596        0.09434
N          2.54323        0.21190       -0.01827
C          3.01595        0.79365        1.25459
C          4.41740        1.35458        1.32519
O          5.15442        1.34048        0.08900
C          3.23512        2.28217        1.35724
C          2.90299        3.00591        2.61714
O          1.72771        3.77974        2.41990
H          0.84749       -0.69508       -0.85962
H          0.48442        0.55140        0.34839
H          1.08455       -1.04972        0.85502
H          2.57194        0.91722       -0.75680
H          2.70176        0.25607        2.14768
H          4.97405        1.18807        2.24151
H          4.83324        0.60089       -0.46147
H          3.09383        2.90289        0.48143
H          3.71679        3.67707        2.90907
H          2.71499        2.31740        3.44726
H          1.95276        4.47942        1.78220
