21

C          2.81134       -1.10868       -0.53800
N          2.32536        0.14272        0.02981
C          2.97114        0.38643        1.32228
C          2.50875        1.75746        1.85523
C          2.38443        1.10757        3.25003
C          2.21602       -0.27416        2.54235
C          0.74893       -0.68438        2.43613
O          2.93338       -1.36921        3.16461
H          2.33487       -1.27590       -1.50857
H          2.57868       -1.96472        0.10319
H          3.89260       -1.07261       -0.70775
H          1.30635        0.12986        0.04497
H          4.06146        0.26465        1.33516
H          1.55171        2.12836        1.46657
H          3.24606        2.56250        1.78270
H          1.53715        1.45901        3.84617
H          3.29283        1.18987        3.85858
H          0.12741        0.10568        2.00293
H          0.34244       -0.91315        3.42754
H          0.63728       -1.58213        1.81906
H          3.85017       -1.05869        3.26106
