19

C          0.93927       -0.01726       -0.08325
N          2.39296       -0.10009        0.01438
C          3.01846       -0.83090       -1.08003
C          3.08029        0.67823       -1.01046
C          4.34140        1.42343       -0.65678
C          4.31977        2.95855       -0.56630
O          5.17924        2.92824        0.60231
C          4.84894        1.52445        0.79146
H          0.49127       -0.71730        0.62936
H          0.53801       -0.25260       -1.07655
H          0.60146        0.98912        0.18793
H          2.39213       -1.29014       -1.83545
H          3.90750       -1.39585       -0.82331
H          2.49631        1.23622       -1.73426
H          5.14179        1.09155       -1.33579
H          3.35329        3.41640       -0.33283
H          4.78630        3.48310       -1.40482
H          4.10761        1.40760        1.58762
H          5.73326        0.92240        1.01781
