16

C          1.43441       -0.58648        0.77245
N          2.66845       -0.12367        0.13589
N          3.26940       -1.04277       -0.66392
C          4.55148       -0.91474       -0.78695
C          5.47524        0.06145       -0.13064
O          6.68646       -0.07288       -0.86994
C          6.59426       -1.33785       -1.50939
O          5.24839       -1.75621       -1.58639
H          0.97714        0.23441        1.33297
H          1.64582       -1.39913        1.47410
H          0.71402       -0.93781        0.02685
H          2.41229        0.69275       -0.43004
H          5.64812       -0.21880        0.91170
H          5.11718        1.08994       -0.20841
H          7.17550       -2.07512       -0.94592
H          7.01159       -1.25819       -2.51751
