16

C          1.67146        0.38081       -0.24620
N          2.48913       -0.59935       -0.04795
N          2.75646       -0.75704        1.25664
C          2.94629       -2.17482        1.54782
C          3.16806       -3.26751        0.55608
O          4.57122       -3.23747        0.23326
C          4.98453       -1.86388        0.36582
C          4.11545       -1.26576        1.42057
H          1.35495        0.62875       -1.27122
H          1.25528        1.00494        0.56526
H          2.67432       -2.52213        2.53409
H          2.58957       -3.14402       -0.36539
H          2.93559       -4.24955        0.97865
H          4.89292       -1.36923       -0.60660
H          6.03865       -1.85395        0.65963
H          4.64549       -0.97964        2.31718
