21

C          3.25371       -0.13247        1.26612
C          2.47770        0.00609       -0.03997
N          2.50672        1.39030       -0.50723
C          3.06947       -0.84045       -1.13222
C          3.04875       -2.34734       -1.04174
C          2.16468       -1.64743       -2.04358
C          2.43836       -1.72361       -3.50727
O          2.32097       -3.07431       -3.93396
H          2.83348        0.51386        2.04341
H          4.31071        0.12557        1.13814
H          3.21044       -1.16243        1.63351
H          1.43366       -0.27684        0.13715
H          3.47502        1.70028       -0.59251
H          2.09311        1.99022        0.20524
H          3.97428       -0.40720       -1.55105
H          2.56337       -2.81600       -0.19228
H          3.92845       -2.87651       -1.39002
H          1.09819       -1.65577       -1.84636
H          3.43794       -1.36177       -3.76776
H          1.70608       -1.12723       -4.05960
H          2.98959       -3.58086       -3.44583
