16

C          0.92917       -0.02368        0.13984
C          2.43199       -0.05446        0.35572
N          3.32446       -0.11170       -0.59346
C          2.95444       -0.24144       -1.90321
O          2.10108       -0.99887       -2.35007
N          2.76650        0.01046        1.71402
C          4.01575       -0.64086        2.13892
C          3.91377        0.84737        2.09460
H          0.62417        0.05162       -0.90218
H          0.51945        0.84916        0.66055
H          0.48910       -0.92327        0.58098
H          3.55901        0.37098       -2.59475
H          4.57106       -1.15486        1.36619
H          3.92170       -1.14397        3.09042
H          4.38913        1.38804        1.28828
H          3.74445        1.38485        3.01628
