14

C          1.08488        0.06447        0.11953
N          2.48770       -0.04646        0.44570
O          3.25236        1.10840        0.13638
C          4.51746        0.60031       -0.02572
C          4.63906       -0.72181       -0.03571
N          5.70890       -1.56439       -0.17148
C          3.23598       -1.17359        0.15953
O          2.86339       -2.33543        0.08594
H          0.77445        1.11087        0.15010
H          0.52121       -0.51031        0.86019
H          0.89356       -0.36070       -0.87009
H          5.29000        1.34063       -0.13575
H          6.57826       -1.18197        0.18479
H          5.49788       -2.49602        0.18227
