16

C          1.81596        1.04221       -0.63626
C          2.67031       -0.03377        0.00422
C          3.22698       -0.95342       -1.04609
N          4.50499       -1.07093       -1.20618
N          4.80559       -1.98001       -2.21531
C          6.08561       -2.10500       -2.33506
C          6.63350       -3.03939       -3.36296
O          7.84089       -3.16316       -3.49064
H          1.41691        1.71698        0.12736
H          0.97238        0.60323       -1.17957
H          2.39839        1.63519       -1.34938
H          2.06462       -0.63294        0.69081
H          3.49019        0.42014        0.57083
H          2.50251       -1.52134       -1.65763
H          6.83429       -1.56971       -1.72843
H          5.88013       -3.57655       -3.95964
