18

C          3.18512        0.96797       -0.83334
C          2.49602       -0.05396        0.03858
N          1.19397       -0.11737        0.07401
N          3.23849       -0.92827        0.79652
O          2.48584       -1.87931        1.49816
C          4.66956       -1.11666        0.83259
C          5.24579       -0.23745        1.90384
C          6.11052        0.76496        1.69592
H          2.46085        1.61011       -1.34021
H          3.78603        0.45489       -1.58932
H          3.83641        1.59578       -0.22019
H          0.78656        0.59550       -0.54109
H          1.56418       -1.59125        1.29918
H          5.11510       -0.90213       -0.14477
H          4.91188       -2.16131        1.06051
H          4.92481       -0.45955        2.91978
H          6.45718        1.02718        0.70106
H          6.48320        1.35521        2.52803
