19

C          0.82060        0.08062       -0.42889
C          2.25584       -0.03357        0.03151
C          3.19453       -0.76630       -0.91417
N          3.27973        0.67946       -0.76747
C          2.50974       -0.07580        1.57041
O          3.91325       -0.12626        1.91205
C          1.70039        0.70226        2.57850
C          1.61529       -0.79600        2.54582
H          0.74293        0.17317       -1.51841
H          0.33777        0.96013        0.00693
H          0.25714       -0.80994       -0.13651
H          2.81772       -1.14134       -1.85756
H          4.00600       -1.34403       -0.48789
H          2.84495        1.15537       -1.56009
H          4.39678        0.43441        1.27472
H          0.84895        1.27474        2.23709
H          2.23373        1.16136        3.40330
H          0.69810       -1.24271        2.18502
H          2.08955       -1.35102        3.34678
