17

C          0.94396        0.02741       -0.00672
C          2.44929       -0.07161        0.14899
C          3.03853       -1.31205       -0.48515
C          3.94768       -0.99639       -1.41366
C          4.77206       -1.89224       -2.26195
N          4.04007        0.35789       -1.51551
C          3.17607        1.00763       -0.65197
O          3.03487        2.21543       -0.55980
H          0.44236       -0.78781        0.52548
H          0.63898       -0.01507       -1.05853
H          0.57645        0.97540        0.40102
H          2.75068       -0.00506        1.19929
H          2.76327       -2.31705       -0.19937
H          4.48582       -2.94087       -2.12969
H          5.83122       -1.79573       -2.00300
H          4.65051       -1.64263       -3.32067
H          4.63925        0.86178       -2.15454
