18

C          1.22846        0.45458       -0.86149
N          2.33453       -0.02892       -0.04182
C          2.89398        0.95907        0.90673
C          3.99186        0.27571        1.71760
C          1.91050        1.70654        1.80332
O          1.61762        2.93034        1.10966
N          2.73403        3.24036        0.29193
C          3.42827        2.15658        0.18684
H          0.90375       -0.35202       -1.52710
H          1.51898        1.29770       -1.49505
H          0.36125        0.73366       -0.25648
H          3.07112       -0.38093       -0.65254
H          3.58367       -0.53053        2.33745
H          4.50193        0.98504        2.38001
H          4.76327       -0.15204        1.06568
H          2.34430        1.97311        2.77437
H          0.98390        1.15554        1.98959
H          4.34600        2.09104       -0.41456
