21

C          0.78391        0.20459       -0.11898
C          2.27776        0.08413        0.06655
C          2.68706        0.07894        1.52073
C          3.12964       -0.72601       -0.89341
N          2.55234       -1.48632       -1.99845
C          3.15078        0.77793       -0.97629
C          4.41116        1.51181       -0.65274
O          4.16480        2.91045       -0.69846
H          0.26076       -0.55031        0.47782
H          0.46925        0.08303       -1.15926
H          0.44694        1.19321        0.21126
H          2.11047       -0.67074        2.07405
H          2.49838        1.05784        1.97270
H          3.74438       -0.16661        1.66120
H          4.01378       -1.20421       -0.47214
H          1.81875       -0.97108       -2.47834
H          2.11453       -2.34120       -1.65397
H          2.65656        1.22669       -1.83153
H          5.19065        1.27518       -1.38532
H          4.80637        1.27356        0.33696
H          3.99080        3.13574       -1.62678
