16

C          1.05004        0.14275        0.11983
C          2.54091        0.07596        0.03237
N          3.18611       -1.03598       -0.14489
C          4.62175       -0.65713       -0.10162
C          4.65485        0.85571       -0.20471
N          3.30760        1.21485        0.11872
C          2.92370        2.52468        0.31927
O          3.66412        3.49760        0.24920
H          0.62086       -0.85948        0.03186
H          0.66288        0.76656       -0.69062
H          0.75223        0.57355        1.07885
H          5.17655       -1.13189       -0.91596
H          5.04545       -0.99521        0.85138
H          4.86128        1.18436       -1.22966
H          5.37464        1.32757        0.47009
H          1.85342        2.63078        0.55204
