21

C          0.91803        0.04108       -0.04745
C          2.40603        0.11745       -0.05289
C          3.21500       -0.69081       -1.03195
C          3.11697        0.80240       -1.18900
O          4.30069        1.53677       -0.82048
C          4.12913        2.95188       -0.95164
C          5.40630        3.66856       -0.50433
N          6.54914        3.32845       -1.35802
H          0.58060       -0.68466        0.69775
H          0.51631       -0.25732       -1.02023
H          0.49500        1.01558        0.21365
H          2.80707        0.25122        0.94514
H          2.69869       -1.30570       -1.75893
H          4.16030       -1.10140       -0.69694
H          2.53197        1.15507       -2.03427
H          3.29187        3.26980       -0.32000
H          3.89786        3.19612       -1.99481
H          5.64616        3.38208        0.52614
H          5.25197        4.75193       -0.53399
H          6.62992        2.30907       -1.37338
H          7.40524        3.67652       -0.92999
