18

C          2.19481        0.81185        1.18319
C          2.45200        0.14035       -0.14432
C          1.97121        0.69543       -1.27436
C          3.23176       -1.16317       -0.05411
N          2.95361       -2.07976       -1.18916
C          4.77377       -0.93345        0.06797
N          5.53406       -1.90930       -0.52515
O          5.30959       -0.01244        0.67582
H          1.62355        1.74025        1.07285
H          3.13217        1.06254        1.68746
H          1.61565        0.14764        1.83323
H          1.41192        1.62771       -1.24632
H          2.12352        0.26676       -2.25689
H          2.93022       -1.69832        0.85438
H          3.20909       -1.59309       -2.04864
H          1.94354       -2.21430       -1.22766
H          5.06273       -2.65689       -1.02348
H          6.54105       -1.86240       -0.48049
