12

O          2.87788        1.26312        0.01299
C          2.35961        0.22269       -0.35636
O          2.98803       -0.88828       -0.79775
C          4.42025       -0.81220       -0.78808
C          4.92527       -1.11305        0.56609
C          5.32889       -1.36461        1.66939
C          4.92691       -1.84342       -1.78321
C          5.36152       -2.72800       -2.63683
H          1.27158        0.05153       -0.38370
H          4.76137        0.17356       -1.12826
H          5.68444       -1.59172        2.64807
H          5.71595       -3.45393       -3.33175
