16

C          2.90054       -1.45772        0.25996
C          2.43257       -0.04432       -0.08521
C          2.97225        1.04801        0.85381
N          2.50901        0.84814        2.22666
C          1.29972        1.30838        2.65906
O          0.50277        1.93609        1.97957
C          4.49225        1.04801        0.85381
N          5.75322        1.04801        0.85381
H          2.41217       -2.18440       -0.39756
H          2.65757       -1.72327        1.29267
H          3.98146       -1.56612        0.12207
H          1.33625       -0.03018       -0.06773
H          2.73733        0.17791       -1.11527
H          2.61827        2.02596        0.50680
H          3.07212        0.29123        2.85772
H          1.11091        1.04774        3.71609
