17

C          3.36023       -0.65356       -1.14871
C          2.67060       -0.00616        0.02187
C          1.33622        0.12082        0.05050
N          3.41312        0.46528        1.08773
C          4.79037        0.39920        1.23408
O          5.58907       -0.09147        0.43875
C          5.29082        0.99476        2.55205
O          6.70694        0.93930        2.65710
H          2.64585       -0.97963       -1.91306
H          3.91454       -1.54264       -0.83045
H          4.04658        0.05002       -1.63112
H          0.72309       -0.24127       -0.77084
H          0.80604        0.58019        0.87824
H          2.89358        0.89713        1.84404
H          4.86295        0.42841        3.38557
H          4.98141        2.04112        2.62137
H          7.00539        0.35162        1.93119
