13

C         -2.13588       -0.05319       -0.22030
C         -1.32320        1.25592        0.08671
C         -0.01637        0.65191        0.03999
C          0.00159       -0.68624       -0.10042
O         -1.22744       -1.22203       -0.18937
N          1.26805       -1.14645       -0.11527
C          1.96548       -0.02304        0.01378
O          1.22720        1.14338        0.12005
H         -2.57558       -0.00952       -1.22387
H         -2.93675       -0.21142        0.50937
H         -1.57286        1.64343        1.07802
H         -1.50021        2.02296       -0.67001
H          3.03979        0.09263        0.04442
