15

C          1.11529        0.00602        0.08015
C          2.45695        0.04821        0.08584
C          3.33071       -1.16673        0.12910
O          4.11343       -1.17964       -1.06819
N          4.94750       -0.04041       -1.15124
C          4.44508        1.20945       -0.92504
O          5.02910        2.20557       -1.35243
C          3.23830        1.32760       -0.00310
H          0.57500       -0.93569        0.11903
H          0.51875        0.91268        0.02618
H          2.74293       -2.09034        0.14956
H          3.98528       -1.16560        1.00836
H          5.70368       -0.11022       -1.82257
H          2.61118        2.14897       -0.36743
H          3.61462        1.59151        0.99113
