17

C          2.90068       -0.58822        1.22747
C          2.46445        0.03885       -0.08926
C          2.93266       -0.76859       -1.27645
C          2.05202       -1.32280       -2.12795
O          4.30743       -0.84285       -1.37615
C          4.83671       -1.95025       -2.10370
C          6.35508       -1.90139       -2.15436
N          7.61470       -1.86085       -2.19639
H          2.52251       -0.00078        2.07016
H          3.99222       -0.62457        1.30915
H          2.51677       -1.60873        1.32724
H          2.86544        1.05612       -0.16480
H          1.37079        0.13264       -0.08726
H          0.98169       -1.20139       -1.97468
H          2.33225       -1.88129       -3.01069
H          4.48961       -1.93179       -3.14284
H          4.53045       -2.88899       -1.62744
