17

C          0.98513       -0.07542       -0.02468
C          2.50350       -0.17360        0.05069
C          3.05232        0.18944        1.43677
C          2.61010       -0.75818        2.52402
O          2.33967       -1.93984        2.33563
C          4.56341        0.27852        1.43332
N          5.24184       -0.82555        1.01346
O          5.16572        1.27686        1.81224
H          0.64899       -0.22818       -1.05502
H          0.63437        0.90749        0.30472
H          0.50600       -0.83804        0.59713
H          2.93410        0.50723       -0.69524
H          2.80570       -1.18610       -0.24166
H          2.66712        1.18255        1.70810
H          2.60539       -0.33564        3.54366
H          4.79034       -1.72760        0.90317
H          6.25149       -0.80871        1.08239
