19

C          2.16959        0.73882       -1.10478
C          2.61589        0.35768        0.30400
O          2.69522       -1.07246        0.36267
C          3.94446        0.98482        0.78520
C          5.09866        0.83177       -0.20613
O          3.77011        2.37905        1.08259
N          4.71451        2.72525        2.07280
C          4.63480        3.98343        2.33530
H          1.19261        0.28644       -1.31776
H          2.84928        0.33955       -1.86585
H          2.08333        1.82116       -1.23142
H          1.82113        0.66039        0.99492
H          3.35326       -1.36550       -0.29033
H          4.22366        0.45998        1.71073
H          4.86700        1.29466       -1.16793
H          5.99472        1.34135        0.16684
H          5.34719       -0.22139       -0.36433
H          5.30753        4.42185        3.08985
H          3.92401        4.66414        1.84031
