16

C          1.13716       -0.01843        0.36599
C          2.46010       -0.09780        0.17250
C          3.23111       -1.36759        0.01631
C          4.17224       -1.19489       -1.16557
O          5.13380       -0.17570       -0.86164
N          4.49959        1.06401       -0.68542
C          3.27972        1.13760       -0.06072
N          2.81125        2.29263        0.30680
H          0.52301       -0.90598        0.47177
H          0.63259        0.94346        0.41068
H          2.56870       -2.22488       -0.14626
H          3.80472       -1.54566        0.93420
H          3.64792       -0.95224       -2.09875
H          4.72861       -2.12328       -1.32963
H          4.74322        1.77881       -1.36225
H          3.52180        3.00512        0.12465
