21

C          1.04623        0.07832        0.07311
C          2.55799        0.04637       -0.02564
O          3.04416       -0.98486        0.83124
C          4.47615       -1.04013        0.83055
C          4.95294       -2.15440        1.77252
O          4.57271       -1.82138        3.11358
C          4.37463       -3.52778        1.36422
N          4.79839       -4.60863        2.25924
H          0.62887        0.85146       -0.57806
H          0.73217        0.27680        1.10314
H          0.62018       -0.89016       -0.20888
H          2.97151        1.01315        0.28156
H          2.86041       -0.16258       -1.05788
H          4.86385       -0.07549        1.17784
H          4.83224       -1.23037       -0.18801
H          6.04786       -2.19130        1.75149
H          3.60936       -1.96476        3.15825
H          4.68951       -3.76541        0.34220
H          3.28008       -3.50313        1.38389
H          5.80876       -4.58252        2.38660
H          4.56708       -5.51008        1.84690
