19

C          0.93337        0.06406       -0.00285
C          2.45671        0.03059       -0.14185
C          2.99240       -1.36599       -0.48768
C          2.64649       -1.79031       -1.90724
C          3.05721       -0.70421       -2.87169
O          3.57312       -0.97344       -3.95712
C          2.63221        0.70916       -2.50630
N          2.95636        1.01585       -1.10627
H          0.60471       -0.65421        0.75609
H          0.41838       -0.18357       -0.93585
H          0.59539        1.05724        0.31230
H          2.87225        0.30319        0.83642
H          2.60991       -2.10698        0.22401
H          4.08566       -1.36149       -0.37740
H          1.57145       -1.96281       -2.02276
H          3.16913       -2.71867       -2.15913
H          1.56150        0.81592       -2.70522
H          3.17006        1.41020       -3.15236
H          2.60049        1.94400       -0.87644
