17

C          1.36605       -0.31954       -0.49794
C          2.72664       -0.82385       -0.03385
C          2.91770       -2.28611       -0.32882
C          3.92269       -3.03363        0.16120
O          4.82604       -2.45461        1.04316
C          5.61485       -3.36134        1.81143
C          4.05713       -4.39804       -0.26672
N          4.17439       -5.50046       -0.60956
H          1.31263        0.76959       -0.40083
H          0.55890       -0.75400        0.10090
H          1.18483       -0.57062       -1.54892
H          2.83303       -0.62412        1.03862
H          3.50228       -0.25694       -0.56183
H          2.20694       -2.74421       -1.01504
H          6.47599       -3.70127        1.22804
H          5.98482       -2.82081        2.68746
H          5.02948       -4.21310        2.17446
