18

C          0.87900        0.96547        0.05730
C          2.28232        1.01827       -0.51648
O          3.20512        1.05291        0.57451
N          4.48967        1.14707        0.01920
C          5.33622        0.01351        0.36002
C          6.58873        0.69447        0.93406
N          6.33792        2.16330        0.95774
C          5.14175        2.26649        0.46410
H          0.13323        0.88523       -0.73840
H          0.67093        1.86589        0.64499
H          0.76935        0.11209        0.73454
H          2.39589        1.91671       -1.13462
H          2.46734        0.12854       -1.12968
H          5.57937       -0.56526       -0.53664
H          4.87441       -0.65401        1.09567
H          7.47133        0.47980        0.32225
H          6.78512        0.34347        1.95291
H          4.58940        3.21456        0.37137
