21

C          0.84439       -0.08102        0.08213
C          2.36114       -0.01719        0.10567
C          3.12205        1.06768        0.91622
N          2.37782        1.46628        2.11271
C          4.15987       -0.01804        1.31403
C          5.44459        0.02330        0.49314
C          3.09978       -1.09969        0.94099
O          3.55313       -2.26934        0.23335
H          0.43271        0.79178       -0.43462
H          0.41397       -0.11890        1.08711
H          0.51016       -0.97532       -0.45445
H          2.70832       -0.02110       -0.94009
H          3.50110        1.91289        0.33495
H          2.03163        0.70845        2.70096
H          1.57509        2.06538        1.92206
H          4.42650       -0.03396        2.37982
H          5.24194        0.05588       -0.58254
H          6.05964       -0.85875        0.69708
H          6.03363        0.90973        0.75024
H          2.52590       -1.41935        1.82124
H          4.00129       -1.94241       -0.56453
