15

C          0.96753        0.14891        0.07419
C          2.49397        0.08064        0.05309
C          3.00063       -0.54506        1.34235
N          3.42096       -1.06412        2.41190
N          2.95118       -0.62563       -1.14706
O          2.52483       -1.96029       -1.23639
C          4.18770       -0.40425       -1.68845
N          4.86627       -1.21548       -2.42197
H          0.61532        0.73765        0.92852
H          0.51565       -0.84698        0.15244
H          0.58568        0.61814       -0.84013
H          2.86665        1.11250        0.01969
H          1.87456       -1.93882       -1.96515
H          4.59459        0.59693       -1.46592
H          4.32893       -2.08844       -2.47560
