23

C          0.96320        0.06062        0.04992
C          2.49036        0.00817       -0.06278
C          2.98310       -1.40931       -0.38208
C          2.72060       -1.78660       -1.83892
C          3.23200       -0.72592       -2.82440
C          4.75718       -0.74388       -2.96045
N          2.73260        0.61563       -2.48909
C          3.02163        1.00452       -1.10538
H          0.60991       -0.64162        0.81273
H          0.46425       -0.18910       -0.89102
H          0.63567        1.06306        0.34558
H          2.89366        0.29392        0.91728
H          2.50851       -2.14078        0.28256
H          4.06051       -1.46611       -0.18327
H          1.64168       -1.92261       -1.98665
H          3.18292       -2.75770       -2.05388
H          2.83182       -0.97712       -3.81503
H          5.26995       -0.52538       -2.01907
H          5.08855       -0.00908       -3.70280
H          5.09713       -1.72894       -3.29889
H          1.72203        0.62808       -2.62560
H          2.58513        1.99436       -0.92650
H          4.10276        1.13370       -0.97658
