14

C          0.86284       -0.10707        0.00908
C          2.33512        0.00661       -0.20287
C          3.12336       -0.71564       -1.30358
C          2.49663       -1.64476       -2.19451
N          1.98888       -2.40308       -2.90789
N          2.74058        0.64802       -1.39456
C          3.63579        1.68691       -1.44710
O          4.82367        1.59470       -1.73347
H          0.64543       -0.79286        0.83367
H          0.33102       -0.45796       -0.88082
H          0.45548        0.87512        0.27206
H          2.86527        0.28925        0.69607
H          4.18150       -0.88715       -1.11552
H          3.15225        2.64351       -1.19995
