13

C          0.95473        0.10986        0.81552
C          2.13845        0.04462        0.62164
C          3.52200       -0.01316        0.24033
C          3.89715        0.74468       -1.00036
O          5.28187        1.12652       -1.16832
N          5.98985       -0.05025       -1.56241
C          5.20428       -1.07225       -1.47645
C          3.84886       -0.75273       -1.03724
H         -0.10285        0.17801        0.91192
H          4.24901       -0.03086        1.04749
H          3.14428        1.29965       -1.54397
H          5.49192       -2.09742       -1.75118
H          3.03887       -1.25553       -1.54564
