12

C          1.00613       -0.02740       -0.09598
C          2.30999       -0.02740       -0.09598
C          3.82999       -0.02740       -0.09598
C          4.33373       -0.73965       -1.29185
N          4.64673       -2.00811       -1.45272
C          5.04094       -2.03635       -2.75988
N          5.00741       -0.86335       -3.39689
O          4.53188        0.01231       -2.41686
H         -0.05984       -0.03130       -0.09955
H          4.18880       -0.52191        0.81291
H          4.19285        1.00581       -0.07962
H          5.36541       -2.93566       -3.26451
