18

C          1.05290       -0.00454       -0.13514
C          2.53807        0.03623       -0.03981
N          3.34984       -0.77134       -0.94048
C          3.37426        0.68867       -1.11709
C          4.59902        1.47270       -0.75083
O          5.63697        1.18218       -1.69006
N          6.78741        1.90468       -1.33032
C          7.77287        1.47751       -2.04623
H          0.65117       -0.72812        0.58145
H          0.70501       -0.28783       -1.13357
H          0.63479        0.97777        0.10559
H          2.88245        0.09057        0.98682
H          2.79324       -1.20244       -1.68043
H          2.89527        1.06993       -2.01046
H          4.94487        1.22694        0.26084
H          4.36875        2.54389       -0.79098
H          8.77527        1.91334       -1.91601
H          7.66713        0.67608       -2.79583
