20

C          2.19310       -1.20236        0.38392
N          2.20026        0.15441       -0.14588
C          2.86978        1.05771        0.80412
C          2.89869        2.48209        0.22294
O          2.37377        3.01952        1.47202
C          1.88660        1.67864        1.82480
C          2.14980        1.36051        3.29737
N          1.45148        2.30472        4.17508
H          1.79440       -1.88634       -0.37198
H          1.56752       -1.28012        1.27852
H          3.20562       -1.54248        0.62547
H          1.24883        0.42512       -0.39910
H          3.83699        0.72406        1.19416
H          2.21868        2.70844       -0.60605
H          3.89449        2.87327       -0.00165
H          0.82031        1.59760        1.56935
H          3.22268        1.40218        3.51567
H          1.80357        0.34680        3.52376
H          1.74809        3.24878        3.91035
H          1.76354        2.17034        5.13473
