21

C          0.62653        0.23428        0.83497
C          2.05318       -0.05406        0.38723
C          2.64895        1.10281       -0.41357
O          2.83325        2.23515        0.43877
C          3.98606        0.69590       -1.03867
C          5.20840        0.37536       -0.13785
C          6.00676        1.10259       -1.23551
N          4.77068        1.88180       -1.52432
H          0.23311       -0.61050        1.40944
H         -0.02868        0.38945       -0.02851
H          0.57877        1.12548        1.46814
H          2.05851       -0.96963       -0.21463
H          2.66334       -0.24637        1.27941
H          1.95589        1.40228       -1.20888
H          3.51430        2.77752       -0.00879
H          3.83700       -0.05895       -1.82539
H          5.22404        0.88482        0.83300
H          5.44200       -0.68291        0.00520
H          6.32059        0.45880       -2.06528
H          6.86113        1.69503       -0.89904
H          4.63730        2.10977       -2.50868
