16

C          1.64215        0.13901        0.15373
C          3.11253       -0.02297       -0.21988
C          3.60549       -1.36401        0.16534
C          4.31589       -0.25591        0.80446
O          4.02269        0.74987        1.77874
C          3.93659        1.98619        1.17663
N          3.77485        2.20982       -0.10187
N          3.66204        1.12319       -0.97226
H          1.29565       -0.62742        0.85534
H          1.03070        0.05734       -0.75172
H          1.43118        1.11088        0.61107
H          4.12848       -1.93499       -0.59604
H          3.02098       -2.00669        0.81479
H          5.34709       -0.21028        0.44519
H          3.99019        2.78914        1.92536
H          3.09148        1.38067       -1.78037
