14

C          0.97735        0.04746       -0.00627
C          2.45746        0.11859       -0.00328
C          3.25117        1.18877       -0.00321
N          4.51057        0.70819        0.00055
C          4.49755       -0.65701        0.00455
O          3.17883       -1.10516        0.00105
N          5.52701       -1.44245        0.01117
O          5.12722       -2.78683        0.01400
H          0.52877        1.04597       -0.00746
H          0.61993       -0.48408        0.88100
H          0.62352       -0.48469       -0.89458
H          3.01179        2.24038       -0.00531
H          5.35024        1.26116        0.00609
H          5.97909       -3.25948        0.01914
