12

C          0.98508       -0.06874        0.07108
C          2.50508       -0.06874        0.07108
C          3.80894       -0.06874        0.07108
C          5.22866       -0.08705        0.07120
N          5.90658        1.05801        0.07362
O          7.24706        0.66256        0.07303
N          7.36358       -0.73086        0.07023
C          6.10471       -1.16896        0.06915
H          0.61195        0.86140        0.50863
H          0.61196       -0.91274        0.65783
H          0.61195       -0.15489       -0.95322
H          5.90281       -2.22877        0.06700
