19

C          1.01478        0.09587       -0.14407
C          2.51552       -0.01925       -0.10128
C          3.17447       -1.37606       -0.04902
O          2.22864       -2.43133        0.02972
C          3.25783        1.10845       -0.14248
C          4.71907        1.20136       -0.13317
C          5.39253        2.40030        0.48270
N          5.38988        1.10937        1.16032
H          0.51156       -0.85984       -0.30779
H          0.70251        0.75576       -0.96126
H          0.64251        0.50910        0.79965
H          3.83930       -1.45904        0.81664
H          3.76223       -1.53908       -0.95746
H          1.86360       -2.40425        0.92846
H          2.73125        2.06075       -0.20742
H          5.22883        0.72588       -0.96605
H          4.79606        3.18490        0.92974
H          6.34190        2.71579        0.06786
H          4.70869        1.09998        1.92115
