20

C          1.19191       -0.00171       -0.18847
C          2.70341       -0.11486       -0.07627
C          3.30797       -0.95304       -1.20623
C          4.83156       -1.01366       -1.06167
N          5.53096       -1.74823       -2.11533
N          5.23390       -1.49769       -3.47531
C          6.78547       -2.28887       -1.83535
O          7.34019       -2.29872       -0.74223
H          0.80307        0.63651        0.61192
H          0.71636       -0.98338       -0.10105
H          0.89970        0.44118       -1.14573
H          2.95966       -0.55520        0.89400
H          3.13580        0.89251       -0.09794
H          3.02801       -0.50889       -2.16788
H          2.89392       -1.96831       -1.18638
H          5.07844       -1.47543       -0.09867
H          5.25171       -0.00272       -1.04696
H          4.22915       -1.60217       -3.62623
H          5.46403       -0.52361       -3.68190
H          7.26070       -2.72148       -2.73228
