16

C          0.97162        0.03085       -0.09079
C          2.49162        0.03085       -0.09079
C          3.79547        0.03085       -0.09079
C          5.31547        0.03085       -0.09079
N          5.98548        0.91181       -1.03134
N          5.52622        2.23494       -1.24847
C          7.33871        0.66198       -1.26273
O          7.97849       -0.28602       -0.82602
H          0.59847        0.40089        0.86821
H          0.59844       -0.98465       -0.24991
H          0.59858        0.67644       -0.89073
H          5.64862       -0.99918       -0.26844
H          5.66297        0.30601        0.91319
H          4.50375        2.21895       -1.29853
H          5.76004        2.79164       -0.42172
H          7.81033        1.43607       -1.89195
