18

C          1.12382       -0.13177        0.23121
C          2.58776        0.01243       -0.04378
C          3.14036        0.58796       -1.13258
C          2.29923        1.17164       -2.22857
N          4.52039        0.62471       -1.18918
C          5.45009        1.08082       -2.06177
N          5.08898        1.64368       -3.22165
O          6.64595        0.96057       -1.79546
H          0.97439       -0.63946        1.18976
H          0.63758       -0.73487       -0.54044
H          0.63891        0.84697        0.29889
H          3.22915       -0.39749        0.73397
H          1.22448        1.07119       -2.04514
H          2.49414        0.66080       -3.17693
H          2.48907        2.24495       -2.33146
H          5.00504        0.21442       -0.39679
H          4.15297        1.89680       -3.47012
H          5.83921        2.00025       -3.79719
