12

C          1.05865        0.04537       -0.06710
C          2.36250        0.04537       -0.06710
C          3.88250        0.04537       -0.06710
O          4.32158       -1.25953        0.32131
N          5.72672       -1.29935        0.33317
C          6.08871       -2.48452        0.68594
C          7.51265       -2.67485        0.74259
N          8.65684       -2.87158        0.80115
H         -0.00708        0.04356       -0.06656
H          4.25204        0.78859        0.64723
H          4.25204        0.27697       -1.07159
H          5.41635       -3.32000        0.93462
