17

C          2.15944       -2.80335       -1.26923
C          2.72311       -1.82449       -0.54943
C          3.25179       -0.54414       -1.12573
C          4.72531       -0.38140       -0.77470
O          5.08949        0.13601        0.27935
N          5.58564       -0.88824       -1.73648
C          6.94983       -0.82921       -1.62842
C          7.76117       -1.34043       -2.55700
H          1.79013       -3.70275       -0.78402
H          2.04179       -2.73360       -2.34585
H          2.80642       -1.94099        0.53079
H          2.70621        0.30670       -0.70249
H          3.11999       -0.49828       -2.21267
H          5.18485       -1.35673       -2.54044
H          7.34825       -0.33923       -0.74091
H          7.39291       -1.83286       -3.44957
H          8.83788       -1.27171       -2.43335
