17

C          1.74772       -0.93906        1.04664
N          2.31283        0.02149        0.10963
C          3.02128        1.09856        0.78991
C          3.66390        2.01704       -0.22872
C          3.18286        3.26523       -0.09522
C          2.16402        3.38038        0.95893
O          0.96699        2.58509        0.94536
C          2.10339        2.00256        1.59217
H          1.29779       -1.76645        0.48937
H          0.96321       -0.49207        1.66568
H          2.51830       -1.36355        1.69838
H          1.55408        0.44323       -0.42881
H          3.81401        0.69920        1.43472
H          4.39641        1.69609       -0.95330
H          3.47636        4.10457       -0.71123
H          2.21171        4.24434        1.60975
H          2.12374        1.88721        2.66288
