21

C          1.30113        0.32738        0.19549
C          2.75326       -0.07897        0.34611
C          3.54620        0.40888        1.61342
C          4.38124        1.67103        1.52749
C          4.31092       -0.95271        1.52503
O          5.48315       -0.97724        0.66724
C          2.99521       -1.51597        0.89699
N          3.32311       -2.41918       -0.20397
H          1.22426        1.35231       -0.18031
H          0.76178        0.26769        1.14496
H          0.79569       -0.32802       -0.52260
H          3.29451        0.13638       -0.58852
H          2.92150        0.45323        2.51934
H          4.85288        1.78371        0.54770
H          3.76486        2.55633        1.71422
H          5.17330        1.65515        2.28505
H          4.55710       -1.38407        2.50198
H          6.12175       -0.38464        1.10527
H          2.25222       -1.88945        1.60764
H          4.28193       -2.26370       -0.54162
H          2.72076       -2.32698       -1.01735
