16

C          0.87610       -0.18283       -0.02870
C          2.38123       -0.03110       -0.03923
N          3.04110        1.09558        0.02368
N          2.31884        2.23014        0.14171
C          3.18730       -1.33053       -0.18696
O          3.97451       -1.27154       -1.36750
C          4.10763       -1.54369        1.00383
C          4.89708       -1.72654        2.02528
H          0.34462        0.75644        0.12499
H          0.59514       -0.87439        0.77069
H          0.56082       -0.60679       -0.98681
H          2.95089        3.03336        0.20411
H          1.77471        2.24841        1.00723
H          2.50598       -2.18247       -0.27429
H          4.50184       -0.45510       -1.27419
H          5.54875       -1.87369        2.85544
