18

C          1.05317       -0.33790        0.24714
C          2.53109       -0.01599        0.20195
N          3.17785        0.64637        1.11530
O          2.35331        1.02624        2.17584
C          3.31490       -0.50721       -1.05269
C          4.83138       -0.22889       -1.16990
N          4.97460       -1.56573       -1.79492
C          3.75313       -1.98973       -1.07548
H          0.55965        0.01303        1.15408
H          0.92680       -1.42219        0.18018
H          0.56731        0.12631       -0.61594
H          2.97060        1.50185        2.76262
H          2.78414       -0.22272       -1.97475
H          5.37106       -0.13326       -0.22052
H          5.10745        0.60648       -1.81941
H          5.82252       -2.06640       -1.53188
H          3.94922       -2.42612       -0.08857
H          3.10458       -2.66529       -1.63998
