17

C          1.43121       -0.39514       -1.15834
C          2.53323       -0.44689       -0.39817
C          3.34928       -1.62355       -0.08377
C          3.01845       -2.46135        1.12476
O          3.02100       -3.84135        0.69595
C          3.87208       -3.92938       -0.45945
C          3.86910       -2.57584       -1.09106
N          4.74217       -1.53636       -0.57039
H          0.90684        0.54524       -1.30374
H          1.02753       -1.27878       -1.63877
H          2.86384        0.48280        0.06411
H          2.02527       -2.24505        1.53036
H          3.76109       -2.33718        1.91973
H          3.48737       -4.70366       -1.12587
H          4.87910       -4.21806       -0.12949
H          3.53827       -2.54009       -2.11705
H          4.83721       -0.78621       -1.25726
