21

C          0.90330       -0.05569       -0.02733
C          2.41816       -0.07201       -0.06255
C          3.14954        0.95231        0.83609
N          4.12474       -0.10120        1.22237
C          5.30596       -0.01913        0.36259
C          3.13147       -1.13843        0.80798
C          3.65962       -2.39476        0.12064
O          2.56627       -3.25038       -0.21057
H          0.51653        0.82077       -0.55715
H          0.52138       -0.02730        0.99825
H          0.49810       -0.94841       -0.51440
H          2.77694       -0.05154       -1.10170
H          2.55903        1.30954        1.68940
H          3.55356        1.83028        0.32021
H          5.89523        0.86352        0.63636
H          5.08196        0.05208       -0.70773
H          5.95312       -0.88809        0.52280
H          2.52411       -1.44284        1.67524
H          4.33951       -2.95088        0.77464
H          4.18450       -2.16917       -0.81231
H          2.18181       -3.56198        0.62724
