19

C          0.95500       -0.12828        1.26448
C          2.44413       -0.24839        1.43576
O          2.96750       -1.17347        2.04625
N          3.14777        0.77621        0.83797
C          4.61600        0.83472        0.88021
C          5.23108        2.06247        0.16483
C          6.26095        2.11647        1.31272
C          5.20308        1.41502        2.19005
H          0.45818       -0.94812        1.79081
H          0.69875       -0.18253        0.20311
H          0.60716        0.82015        1.68330
H          2.61918        1.48925        0.35036
H          5.07740       -0.11222        0.57168
H          4.58049        2.94412        0.11921
H          5.64446        1.87475       -0.82955
H          6.56403        3.11499        1.63613
H          7.15616        1.51037        1.13165
H          4.54218        2.11092        2.72083
H          5.59238        0.68242        2.90171
