20

C          1.10188       -0.06023        0.02133
C          2.61977       -0.04358        0.10331
C          3.09485        0.23547        1.52417
O          4.52354        0.22079        1.55784
C          4.99591        0.52398        2.86620
C          6.50460        0.49376        2.90134
N          7.17730        1.51697        3.32791
N          8.51338        1.32482        3.38081
H          0.77576       -0.25906       -1.00498
H          0.68135        0.90161        0.33026
H          0.68329       -0.83867        0.66647
H          3.02103        0.71662       -0.57678
H          3.02201       -1.00314       -0.24081
H          2.71108       -0.53293        2.20523
H          2.73049        1.21554        1.85359
H          4.63834       -0.23743        3.56754
H          4.64196        1.51248        3.17771
H          6.98762       -0.45196        2.59232
H          8.99078        2.22515        3.47204
H          8.89495        0.86880        2.55084
