15

C          1.09318       -0.01966       -0.02021
C          2.61129        0.00405        0.10264
O          3.06135       -1.18768        0.78513
C          3.32602       -0.82754        2.15813
C          3.48627        0.65383        2.13547
C          3.08031        1.12764        0.95826
C          4.56576       -1.49853        2.72665
N          5.59423       -2.05517        3.19828
H          0.77512       -0.87490       -0.62501
H          0.71327        0.89760       -0.48160
H          0.61347       -0.13795        0.95872
H          3.08130        0.02903       -0.88443
H          2.45786       -1.10823        2.76569
H          3.85843        1.24794        2.95895
H          3.06762        2.16898        0.66443
