21

C          0.90574        0.05890        0.19209
C          2.42297        0.04362        0.07914
C          3.03305       -1.06281       -0.78499
C          2.55975       -0.72355       -2.21226
C          2.58744        0.81281       -2.21143
C          3.04970        1.14103       -0.78078
N          4.49313        0.79563       -0.70698
C          4.51870       -0.68755       -0.68707
H          0.56347       -0.81424        0.75765
H          0.38816        0.04698       -0.77031
H          0.57870        0.95657        0.72742
H          2.83762        0.03771        1.09684
H          2.81463       -2.08654       -0.47459
H          1.54619       -1.09400       -2.39814
H          3.21627       -1.14303       -2.98166
H          1.58884        1.21679       -2.41010
H          3.26477        1.21101       -2.97489
H          2.84564        2.16896       -0.47287
H          4.86800        1.13590        0.17911
H          4.95023       -1.03834        0.25724
H          5.11530       -1.08284       -1.51476
