18

C          0.99410        0.04314       -0.12266
C          2.49592       -0.03154        0.02821
N          3.13600        1.06566        0.29715
N          4.47381        0.97915        0.47144
C          5.23498        0.00135       -0.30388
C          4.65152       -1.38083       -0.03199
O          5.02419       -1.81956        1.27591
C          3.13226       -1.39549       -0.14792
H          0.65600        1.08243       -0.13123
H          0.52700       -0.48099        0.71357
H          0.69689       -0.43597       -1.05912
H          4.89651        1.90660        0.38307
H          6.28263        0.03955        0.02802
H          5.19824        0.24789       -1.36668
H          5.07926       -2.10707       -0.72774
H          4.79944       -1.08634        1.87950
H          2.68380       -2.07301        0.58692
H          2.84869       -1.74402       -1.14658
