15

C          0.99768       -0.02755       -0.51424
N          2.35092       -0.63984       -0.43399
C          2.45157       -0.09360        0.94623
C          1.43153        1.01940        0.55713
O          0.41600        1.32005        1.57585
C          0.44936        2.69219        1.53810
C          1.32423        3.18965        0.68673
O          2.03980        2.24248        0.00160
H          0.19223       -0.70006       -0.19441
H          0.74256        0.37592       -1.49838
H          3.01390       -0.19202       -1.07379
H          3.45237        0.25058        1.22225
H          2.09747       -0.78799        1.71848
H         -0.23357        3.20270        2.19553
H          1.55489        4.21583        0.46176
