16

C          1.06149       -0.15110       -0.24337
C          2.54566       -0.17113       -0.03496
N          3.19336        0.91815        0.32349
C          4.57279        0.54489        0.56809
C          5.46094       -0.03368       -0.49668
C          4.62439       -0.96127        0.32661
N          3.28163       -1.35486       -0.15152
O          2.73557       -2.40931        0.57679
H          0.70641        0.87604       -0.36463
H          0.57352       -0.59320        0.62953
H          0.80071       -0.73274       -1.13168
H          5.06872        1.02357        1.40163
H          6.52905       -0.03157       -0.31398
H          5.19292        0.12935       -1.53297
H          5.06160       -1.57447        1.10083
H          2.92599       -3.17266        0.00361
