14

C          1.93027       -0.35427       -0.14564
N          3.13339        0.45172       -0.17943
C          3.21225        1.57320       -1.10828
C          4.56528        1.07109       -1.42574
N          5.82407        1.47688       -1.32583
O          6.44338        0.42266       -0.60834
C          5.48006       -0.45080       -0.16164
C          4.28825       -0.05749       -0.68191
H          1.22149        0.09378        0.55786
H          2.14602       -1.36961        0.20789
H          1.44394       -0.42366       -1.12486
H          3.14506        2.56159       -0.65380
H          2.50055        1.48522       -1.93868
H          5.80575       -1.16112        0.58305
