16

C          1.22932        0.00087       -0.02880
N          2.66399       -0.06141       -0.17466
C          3.42357       -1.10498        0.24928
N          4.64124       -0.87374        0.62967
C          4.75827        0.61670        0.57700
C          3.45345        1.15628       -0.03589
C          3.73013        1.74835       -1.39960
O          3.47092        2.91146       -1.69818
H          0.78225       -0.99658       -0.09841
H          0.79402        0.61961       -0.81964
H          0.95554        0.43069        0.93999
H          2.96029       -2.10444        0.21847
H          5.65121        0.89859        0.01009
H          4.87595        0.98359        1.60366
H          2.98386        1.90379        0.61109
H          4.19290        1.06633       -2.13518
