14

C          0.08588        0.91694       -0.02880
N         -0.71049       -0.27496        0.13349
C          0.75026       -0.44359        0.03430
C          1.50265       -0.85960        1.27789
C          1.17791       -0.57417        2.58209
O          2.12082       -1.14657        3.38276
C          2.96346       -1.75525        2.50274
N          2.64732       -1.61669        1.23446
H          0.15089        1.57801        0.82644
H          0.03565        1.41751       -0.98806
H         -1.14618       -0.56473       -0.74322
H          1.13918       -0.84556       -0.89506
H          0.38044       -0.03728        3.07296
H          3.80223       -2.28804        2.92760
