14

C          2.13319       -0.03547        0.00494
C          1.29322        1.25691        0.00313
N         -0.03035        0.70667        0.00070
C         -1.30382        1.12696        0.00038
C         -2.02078       -0.06281       -0.00366
N         -1.18460       -1.17046       -0.00580
C          0.00409       -0.63995       -0.00290
O          1.21676       -1.16689       -0.00267
H          2.76342       -0.10163        0.89830
H          2.77415       -0.09758       -0.88101
H          1.44329        1.85545       -0.89864
H          1.44040        1.85648        0.90465
H         -1.60941        2.16308        0.00278
H         -3.09682       -0.18369       -0.00517
