15

C          1.09244        0.15452       -0.02969
C          2.58501        0.16286       -0.03089
C          3.31927        1.27866       -0.16146
C          4.80505        1.19790       -0.15202
O          5.40575        0.13787       -0.02929
N          5.40755        2.42028       -0.29383
C          6.76279        2.58577       -0.31081
O          7.28839        3.68533       -0.43613
H          0.72763       -0.87081        0.09036
H          0.69797        0.54051       -0.97444
H          0.69818        0.74825        0.80050
H          3.07742       -0.80239        0.08196
H          2.84826        2.24727       -0.27461
H          4.87142        3.26808       -0.39172
H          7.34171        1.65358       -0.20271
