18

C          1.14846       -0.12851        0.24142
N          2.59875       -0.05393        0.17578
C          3.13918        1.01958        0.60412
N          2.59781        2.15507        1.13359
C          3.50995        3.25418        0.93507
C          3.19197        3.93852       -0.39115
C          4.83384        2.50029        0.90647
O          4.49069        1.17249        0.47299
H          0.81666       -1.05409       -0.23904
H          0.67680        0.69913       -0.29697
H          0.79467       -0.14412        1.27810
H          1.61437        2.31236        0.96687
H          3.47194        3.98003        1.75328
H          3.21881        3.23273       -1.23011
H          3.90757        4.73888       -0.59955
H          2.18612        4.37291       -0.36684
H          5.28176        2.42430        1.90377
H          5.56514        2.93763        0.22029
