16

C          1.12089        0.01027       -0.05591
C          2.61196        0.07043       -0.03105
C          3.29500        0.95332        0.71265
C          4.78093        0.95721        0.70934
O          5.47006        0.16569        0.07963
C          5.47611        2.00673        1.58784
N          4.89045        3.19785        1.91541
N          6.67622        1.76520        2.01977
H          0.79082       -0.82465       -0.68160
H          0.70150        0.92992       -0.47530
H          0.71846       -0.14677        0.94986
H          3.14506       -0.65431       -0.64627
H          2.79035        1.67425        1.34343
H          4.32683        3.62974        1.19270
H          5.58339        3.83888        2.29396
H          6.96445        0.84369        1.64743
