21

C          1.02730       -0.15649        0.04577
C          2.54619       -0.05494        0.06650
C          3.07805        1.38843       -0.05314
C          2.59791        2.26931        1.10473
C          4.61851        1.40573       -0.09196
N          5.16000        0.68679       -1.22801
C          5.34678        1.28019       -2.44803
O          5.12573        2.45169       -2.71720
H          0.72421       -1.20853        0.02897
H          0.61276        0.32926       -0.84299
H          0.58013        0.29862        0.93389
H          2.92819       -0.65536       -0.76774
H          2.92341       -0.51806        0.98642
H          2.69936        1.81990       -0.98897
H          2.89850        1.85057        2.07134
H          1.50894        2.37576        1.10272
H          3.01937        3.27748        1.02782
H          5.03428        0.94163        0.80943
H          4.98114        2.43931       -0.13420
H          5.31967       -0.30855       -1.14489
H          5.73305        0.56609       -3.19453
