19

C          1.02067       -0.02580        0.01015
C          2.53095       -0.12353       -0.08290
N          3.22872        0.91712        0.70692
C          4.24144       -0.08734        1.12251
C          5.51734        0.03048        0.29965
C          3.22201       -1.20233        0.78362
C          3.71906       -2.47813        0.08726
O          4.50700       -3.29801        0.55873
H          0.65463        0.85082       -0.53472
H          0.67440        0.04797        1.04668
H          0.55485       -0.91132       -0.43497
H          2.85367       -0.13576       -1.13311
H          2.68543        1.28122        1.49196
H          4.48148       -0.03807        2.19207
H          5.32428        0.00574       -0.77825
H          6.20145       -0.79124        0.53616
H          6.03783        0.96719        0.52781
H          2.62276       -1.47248        1.66768
H          3.30489       -2.64801       -0.92084
