17

C          2.67902       -1.04570        1.03371
C          2.52621        0.11798        0.06738
C          3.18070        1.36932        0.63395
O          3.04273        2.49197       -0.29422
C          2.80304        3.37399        0.83871
C          2.41667        2.17251        1.70879
C          2.98383        2.14932        3.03000
N          3.43582        2.12871        4.09887
H          2.22844       -1.95077        0.61478
H          2.19324       -0.83305        1.99110
H          3.73595       -1.25245        1.23347
H          1.46381        0.29019       -0.13940
H          3.00192       -0.14745       -0.88376
H          4.24740        1.20819        0.84550
H          1.99983        4.08861        0.63945
H          3.71767        3.91316        1.11027
H          1.33432        1.99101        1.70264
