19

C          1.07772        0.00499        0.00205
N          2.53468       -0.02612       -0.03508
C          3.00791       -1.05338       -0.96549
C          4.53706       -1.04553       -1.00751
C          5.07565       -2.12428       -1.94380
O          4.61379       -1.89944       -3.26922
C          6.59763       -2.13227       -1.88418
O          7.30646       -1.81349       -2.83589
H          0.74748        0.79639        0.68154
H          0.66756       -0.94353        0.36322
H          0.65970        0.22374       -0.98584
H          2.88889       -0.21288        0.90207
H          2.61058       -0.85542       -1.96790
H          2.65478       -2.04190       -0.64813
H          4.94335       -1.19561        0.00124
H          4.88139       -0.05973       -1.34804
H          4.72868       -3.11558       -1.63323
H          5.26297       -1.30307       -3.69379
H          7.03755       -2.44214       -0.92097
