16

O          2.68774       -0.17299       -1.30362
C          2.31882        0.07680       -0.02990
O          1.38308        0.82038        0.23252
C          3.13379       -0.63045        1.03732
C          3.04578       -2.15330        0.90585
C          4.35504       -2.50620        0.27113
C          5.21452       -1.48161        0.29885
C          4.62137       -0.27418        0.95633
H          3.44326       -0.78602       -1.39234
H          2.72117       -0.30842        2.00271
H          2.19984       -2.47908        0.29324
H          2.97678       -2.63333        1.88865
H          4.57815       -3.48847       -0.12578
H          6.23090       -1.51818       -0.07246
H          4.80978        0.63414        0.37663
H          5.05570       -0.15344        1.95491
