15

C          1.04999        0.01271        0.03673
C          2.55244       -0.01348       -0.13484
N          3.21976        1.04218        0.59189
C          4.28696        0.64918        1.37075
O          5.04654        1.41102        1.94199
C          4.34727       -0.84621        1.38459
C          3.20523       -1.23483        0.49085
O          2.88002       -2.39323        0.26140
H          0.63214        0.94903       -0.34782
H          0.76078       -0.07485        1.09011
H          0.58413       -0.81733       -0.50470
H          2.85257        0.05895       -1.18359
H          3.08027        2.03010        0.41308
H          4.18742       -1.22236        2.39665
H          5.29015       -1.18557        0.95168
