17

C          3.23913        1.30962        0.32153
N          2.55815        0.03380        0.11463
C          2.98614       -0.61272       -1.14113
C          4.45679       -1.06581       -1.09787
O          4.08286       -2.44305       -1.38299
C          2.70044       -2.12928       -1.04830
C          2.49970        0.06746       -2.32136
C          2.09031        0.64852       -3.28965
H          2.89962        1.74641        1.26604
H          3.02088        2.03066       -0.47234
H          4.32343        1.18537        0.39983
H          1.55148        0.19871        0.13915
H          4.97626       -1.00768       -0.13483
H          5.10589       -0.65672       -1.87853
H          2.44606       -2.53428       -0.06176
H          2.00932       -2.54208       -1.79012
H          1.72834        1.17041       -4.14602
