21

C          1.01422       -0.09732       -0.08112
C          2.55396       -0.05373       -0.01881
N          3.00392        1.08942       -0.84199
C          3.01092        0.16231        1.44723
O          2.52767        1.40496        1.95752
C          3.10934       -1.37922       -0.58873
C          4.63112       -1.49415       -0.63148
O          4.99249       -2.75351       -1.19393
H          0.56241        0.83144        0.28607
H          0.62232       -0.91778        0.53099
H          0.66036       -0.25193       -1.10734
H          2.42570        1.90350       -0.62494
H          2.80960        0.89168       -1.82574
H          4.10128        0.18002        1.53901
H          2.63290       -0.63706        2.09368
H          2.98376        2.08775        1.43298
H          2.72531       -1.53853       -1.60614
H          2.71352       -2.22237       -0.00574
H          5.07802       -1.43574        0.36433
H          5.07294       -0.71342       -1.25698
H          4.68447       -3.44693       -0.58643
