17

C          0.99226        0.10609        0.09459
C          2.51218       -0.00571        0.00373
O          2.93052        0.08392       -1.36809
C          2.85201       -1.06399       -2.07391
N          3.29625       -0.86095       -3.33417
O          2.44966       -2.14327       -1.67164
C          3.15418        1.15388        0.72003
C          3.95512        1.04348        1.78858
H          0.50675       -0.73352       -0.41332
H          0.63237        1.01735       -0.39720
H          0.65465        0.11506        1.13633
H          2.85054       -0.95164        0.44619
H          3.67021        0.03755       -3.59568
H          3.33541       -1.64296       -3.96990
H          2.94051        2.14478        0.32478
H          4.20466        0.07907        2.22049
H          4.38173        1.92672        2.25437
