17

C          1.56643        0.95117        0.13876
C          2.43394       -0.05873       -0.01038
C          3.13796       -0.74276        1.11509
O          4.54258       -0.62523        0.88747
C          5.28398       -1.23899        1.94072
C          6.77629       -1.08161        1.67784
C          7.53629       -1.75053        2.81157
N          8.16677       -2.30546        3.75210
H          1.08560        1.40189       -0.72410
H          1.31978        1.35452        1.11583
H          2.65099       -0.42740       -1.00953
H          2.85496       -1.80143        1.13006
H          2.87958       -0.29198        2.08043
H          5.01957       -2.30248        1.99692
H          5.01851       -0.76742        2.89539
H          7.04673       -0.02186        1.61780
H          7.04931       -1.53959        0.72100
