18

C          0.99782        0.03740       -0.02660
C          2.53263        0.01974        0.01456
C          3.09144        1.29868       -0.63484
O          3.98616        1.11425       -1.74227
C          4.02282       -0.10404       -2.31765
N          3.57660       -1.21006       -1.83047
N          3.14170       -1.18366       -0.55433
C          2.63865       -2.44387       -0.01472
H          0.61563        0.97833        0.38687
H          0.56921       -0.76663        0.58093
H          0.62033       -0.06212       -1.04907
H          2.80949        0.05830        1.07719
H          3.64341        1.87446        0.11587
H          2.28576        1.94594       -1.00081
H          4.51570       -0.05378       -3.29949
H          3.24155       -3.28141       -0.37507
H          1.60213       -2.63204       -0.31302
H          2.70341       -2.45062        1.07837
