16

C          0.85475        0.17419       -0.02919
C          2.32033        0.00116        0.17062
C          3.14078       -1.05235       -0.54108
C          2.68605       -1.74845       -1.78638
C          2.60627       -0.62881       -2.78209
O          2.35904       -0.72425       -3.97232
N          2.84177        0.54299       -2.08261
N          3.35042        0.39233       -0.78791
H          0.31556       -0.51631        0.62839
H          0.51081       -0.01405       -1.04947
H          0.55749        1.19155        0.24483
H          2.58141        0.20122        1.20608
H          3.92515       -1.56381       -0.00219
H          1.70464       -2.21320       -1.65854
H          3.42021       -2.48580       -2.11931
H          2.96423        1.40925       -2.59258
