19

C          0.81302       -0.01268        0.07266
C          2.34097       -0.05854        0.12451
C          2.78925       -1.00709        1.24054
C          2.95991       -0.49794       -1.21938
C          2.66335        0.44710       -2.39367
O          3.13897        1.76119       -2.07833
C          3.28225       -0.05474       -3.63829
N          3.78506       -0.44858       -4.60814
H          0.40096        0.26576        1.04860
H          0.39602       -0.98646       -0.20540
H          0.45852        0.73063       -0.64718
H          2.70374        0.94552        0.37738
H          2.55798       -2.04935        0.99493
H          2.29277       -0.76450        2.18608
H          3.86930       -0.92874        1.40293
H          2.61621       -1.51083       -1.46845
H          4.04878       -0.56281       -1.08480
H          1.58402        0.52593       -2.55461
H          4.11229        1.73399       -2.09704
