18

C          2.98481       -0.18252        1.53117
C          2.55242       -0.00094        0.07730
C          3.07529        1.28052       -0.57990
N          2.57209        2.48091        0.11308
N          1.34585        2.90609       -0.28274
C          0.76557        3.64357        0.60425
C          4.59789        1.29754       -0.59230
O          5.28683        2.23879       -0.20253
H          2.51693       -1.07779        1.95316
H          2.69358        0.67039        2.15133
H          4.06973       -0.30826        1.60683
H          1.45523       -0.01309        0.03555
H          2.89569       -0.87183       -0.49219
H          2.76967        1.30308       -1.63333
H          3.27515        3.22349       -0.01231
H         -0.23154        4.06104        0.39189
H          1.20477        3.87807        1.58882
H          5.07242        0.41296       -1.05178
