19

C          1.01953        0.35592       -1.09802
C          2.51016        0.30619       -1.07762
C          3.20816       -0.80856       -0.81601
C          4.69011       -0.75142       -0.81182
O          5.25803        0.12693       -0.16750
N          5.34638       -1.71703       -1.55516
C          4.71232       -2.66620       -2.45945
C          6.80013       -1.70462       -1.57453
H          0.68511        1.34323       -1.43222
H          0.61459        0.18515       -0.09648
H          0.61002       -0.38638       -1.78925
H          3.04035        1.23377       -1.29473
H          2.73625       -1.75193       -0.57863
H          3.62335       -2.62359       -2.43730
H          5.03187       -3.67636       -2.18557
H          5.04178       -2.44824       -3.48051
H          7.22037       -0.97350       -0.87931
H          7.13758       -1.46048       -2.58668
H          7.16343       -2.69937       -1.30006
