17

C          0.86543        1.10766       -0.69099
C          2.34523        1.36089       -0.76792
O          2.83977        2.47417       -0.62819
N          3.08684        0.22287       -0.99893
C          4.55164        0.27840       -1.19390
C          5.39556        0.71157        0.01439
O          6.27403       -0.43620       -0.15776
C          5.28656       -1.05710       -1.01962
H          0.32996        2.06006       -0.64901
H          0.63550        0.52645        0.20551
H          0.53324        0.56239       -1.58058
H          2.58723       -0.65104       -1.11217
H          4.81572        0.79780       -2.12218
H          4.90702        0.68058        0.99351
H          5.93202        1.65677       -0.10479
H          4.74553       -1.84446       -0.48437
H          5.73138       -1.46700       -1.93044
