14

C          1.18365       -0.02440       -0.21420
C          2.50482        0.00859       -0.00440
N          3.14467        0.19647        1.20649
N          2.37451        0.30612        2.37598
C          2.71212        1.09590        3.43925
O          2.05828        1.12473        4.47734
C          4.53831        0.10035        1.31630
O          5.20594        0.16155        2.33865
H          0.80128       -0.20524       -1.21602
H          0.44666        0.11757        0.56705
H          3.16145       -0.14122       -0.86030
H          1.59494       -0.32581        2.49585
H          3.60963        1.71980        3.29356
H          5.01986       -0.03895        0.33454
