17

C          1.11823       -0.01198       -0.04519
C          2.45375        0.01916       -0.09492
C          3.25090        1.23341       -0.12878
C          4.58672        1.08340       -0.17412
C          5.10638       -0.32186       -0.20721
C          4.37114       -1.23920       -1.22869
C          3.27044       -1.24978       -0.12481
N          4.41296       -1.12937        0.86190
H          0.53169        0.90082       -0.02174
H          0.57330       -0.94987       -0.01790
H          2.77932        2.20805       -0.09533
H          5.27076        1.92220       -0.18360
H          6.19790       -0.38173       -0.19861
H          4.85384       -2.20970       -1.40013
H          4.10813       -0.80585       -2.19837
H          2.69000       -2.17341       -0.03700
H          4.87043       -2.02078        1.04390
