17

C          0.95038        0.42632        0.12937
C          2.40665        0.01136       -0.02359
C          2.85222       -0.84995        1.10641
C          3.40456       -0.50516        2.32648
C          3.64151       -1.70279        3.04561
C          3.23697       -2.74846        2.24308
N          2.77463       -2.21387        1.07727
O          2.30772       -2.95580        0.00463
H          0.65007        1.07678       -0.69885
H          0.78946        0.97434        1.06417
H          0.28849       -0.44537        0.13370
H          3.03130        0.91274       -0.06546
H          2.54084       -0.49934       -0.98311
H          3.61378        0.50342        2.66052
H          4.06437       -1.79212        4.03642
H          3.25654       -3.81506        2.40630
H          1.88528       -3.68843        0.47957
