12

C          1.33246        0.33731        0.55143
C          2.53832       -0.14428       -0.21605
O          2.93056       -1.30657       -0.10321
C          3.20755        0.78763       -1.10682
N          2.83638        2.06591       -1.24974
O          3.72753        2.59935       -2.17881
N          4.64171        1.63976       -2.60658
C          4.30672        0.53851       -1.93854
H          1.02089       -0.43371        1.26238
H          0.50831        0.53188       -0.14021
H          1.57565        1.24237        1.11442
H          4.86376       -0.37545       -2.08481
