14

C          1.07478       -0.00957        0.00018
C          2.40955        0.00137       -0.09582
N          3.14987        1.15439       -0.14814
C          4.51358        1.12557       -0.25547
C          5.20700       -0.01793       -0.31140
C          4.44533       -1.29414       -0.25105
O          5.02690       -2.37364       -0.29479
N          3.07776       -1.19587       -0.14628
H          0.50625        0.91286        0.04179
H          0.50858       -0.93382        0.03846
H          2.67151        2.04661       -0.11344
H          4.99614        2.09638       -0.29328
H          6.28180       -0.07190       -0.39735
H          2.57574       -2.07101       -0.10813
