18

C          1.37711       -0.07260        0.68244
N          2.52908        0.01004        0.10362
N          2.72122        1.22199       -0.47941
C          3.52604        1.19910       -1.72382
C          3.46511        2.56786       -2.41326
O          3.95569        3.60895       -1.55834
C          3.21894        3.63517       -0.33010
C          3.28581        2.28392        0.38877
H          1.08892       -1.00379        1.19194
H          0.64144        0.75013        0.69861
H          3.13549        0.43630       -2.40748
H          4.56717        0.93892       -1.49133
H          2.43914        2.80862       -2.72100
H          4.08618        2.55949       -3.31429
H          2.17956        3.91968       -0.53724
H          3.65484        4.41359        0.30318
H          2.71784        2.34886        1.32480
H          4.32379        2.04032        0.64457
