19

C          0.92598       -0.08952        0.15828
C          2.40982       -0.14808       -0.03114
C          3.04668       -1.23479       -0.54440
C          4.56881       -1.27621       -0.72841
C          5.20256       -0.16445        0.03574
N          5.88146        1.07094       -0.21493
C          4.47440        1.11305       -0.46121
C          3.19918        1.13113        0.31232
H          0.44131       -1.03554       -0.10415
H          0.49687        0.69172       -0.47826
H          0.68120        0.13707        1.20054
H          2.49290       -2.12506       -0.82726
H          4.81336       -1.23490       -1.79435
H          4.93890       -2.23260       -0.34124
H          5.19719       -0.40965        1.09626
H          6.41543        1.02712       -1.08493
H          4.24520        1.24646       -1.51736
H          2.61877        2.01128        0.01662
H          3.36388        1.19038        1.39564
