23

C          1.04932        0.06697       -0.13667
C          2.57133        0.06282       -0.12347
N          3.04945        0.60641        1.14791
C          4.52149        0.55012        1.22771
C          5.02752        1.13344        2.56732
O          4.54756        2.47475        2.69355
C          4.57181        0.31724        3.78448
C          5.10278        0.88219        5.09456
H          0.67713       -0.32735       -1.08781
H          0.65535        1.08142       -0.01345
H          0.64379       -0.55724        0.66630
H          2.94033        0.66665       -0.96027
H          2.92485       -0.96594       -0.26059
H          2.64831        0.05213        1.90529
H          4.93446        1.15685        0.41156
H          4.87892       -0.47865        1.11069
H          6.12198        1.17610        2.54377
H          3.64883        2.46056        2.30562
H          4.90257       -0.72231        3.67821
H          3.47836        0.31246        3.85574
H          6.19570        0.90529        5.10058
H          4.76856        0.26094        5.93240
H          4.73279        1.89859        5.26686
