18

C          0.04468        0.68288        0.22766
N          0.15132       -0.75443        0.05928
C          1.27210       -1.30878       -0.27554
C          2.55434       -0.56637       -0.57149
C          1.25095       -2.79304       -0.40379
C          2.23041       -3.66818       -0.14243
N          3.50870       -3.50124        0.31932
O          4.38424       -4.57657        0.24741
H          0.95092        1.15282        0.61891
H         -0.75082        0.89399        0.95129
H         -0.23713        1.15553       -0.71853
H          3.18147       -0.54609        0.32269
H          2.36486        0.45958       -0.89180
H          3.09230       -1.05861       -1.38799
H          0.27818       -3.18184       -0.69751
H          1.99639       -4.72564       -0.26906
H          3.94210       -2.59629        0.15152
H          4.39546       -4.91494        1.16477
