19

C          0.92992       -0.07265       -0.10041
C          2.45863        0.00616       -0.05286
C          2.95700        0.89065        1.10441
N          2.48701        2.26792        0.98215
C          3.04309       -1.41195        0.05906
O          4.47992       -1.39204        0.09863
C          5.10151       -1.29068       -1.10242
O          4.56817       -1.20584       -2.19662
H          0.48427        0.91265       -0.26975
H          0.52473       -0.47255        0.83549
H          0.60080       -0.72452       -0.91667
H          2.80814        0.45195       -0.99316
H          4.05220        0.90448        1.12753
H          2.61583        0.48431        2.06321
H          2.81740        2.66416        0.10206
H          2.90130        2.83395        1.72176
H          2.69684       -2.05429       -0.75995
H          2.71023       -1.88523        0.99039
H          6.19020       -1.28451       -0.94098
