19

C          1.51613       -0.01014       -1.18532
N          0.87042        1.02586       -0.38999
C          0.75170       -0.35833        0.06751
C          1.48505       -0.77856        1.30405
C          0.97237       -0.10999        2.56344
C          1.44150       -1.06372        3.63764
O          1.38177       -2.37900        3.07050
C          1.29622       -2.25183        1.64235
H          2.59933       -0.00378       -1.16309
H          1.07292       -0.23324       -2.14804
H          0.00391        1.33972       -0.83176
H         -0.23567       -0.79622       -0.02472
H          2.56060       -0.57274        1.21268
H         -0.12336       -0.05911        2.55730
H          1.35526        0.90498        2.70523
H          0.82385       -1.02086        4.53917
H          2.48204       -0.86638        3.91756
H          0.31383       -2.63019        1.33738
H          2.05925       -2.88298        1.17612
