17

C          0.94908        0.02606       -0.03882
C          2.42905        0.12019       -0.03905
C          3.25884        1.22518       -0.05748
C          4.59469        0.75454       -0.04863
C          4.55530       -0.62749       -0.02162
C          5.67267       -1.60476       -0.00826
N          3.23096       -0.98563       -0.00508
O          2.73623       -2.28012        0.07456
H          0.49350        1.02153       -0.03952
H          0.59518       -0.50578        0.84979
H          0.59405       -0.50637       -0.92794
H          2.93768        2.25901       -0.07277
H          5.49246        1.36116       -0.05404
H          6.64010       -1.09198        0.00519
H          5.64264       -2.23661       -0.90235
H          5.61794       -2.24617        0.87666
H          3.50367       -2.78656       -0.22779
