16

C          1.14012        0.05116        0.00892
N          2.60173        0.02054       -0.01121
C          3.11755        0.93267        0.72393
N          4.47236        1.00609        0.78251
C          5.15458        1.92159        1.54886
O          4.62042        2.77064        2.26178
C          6.67398        1.81785        1.44305
O          7.31491        2.28374        2.61989
H          0.75674       -0.73844       -0.64453
H          0.75685        1.00742       -0.36381
H          0.75197       -0.13164        1.01681
H          2.56066        1.67645        1.31926
H          4.96190        0.30831        0.24040
H          7.00474        2.43031        0.59889
H          6.97832        0.78120        1.27412
H          6.77443        3.03028        2.94779
