16

C         -0.50334        1.18740        1.00598
C          0.30357        1.41524       -0.27190
C          1.42085        0.51547       -0.68552
O          1.61359       -0.49057        0.29879
N          0.81636       -1.63938        0.17814
C         -0.42298       -1.53911       -0.21069
C         -1.26383       -0.41178       -0.75710
N         -1.07770        0.96572       -0.30525
H         -0.85529        2.06468        1.53763
H         -0.29831        0.34537        1.65124
H          0.46238        2.43704       -0.59816
H          2.34663        1.09841       -0.72732
H          1.27678        0.08253       -1.68276
H         -0.94649       -2.51232       -0.22867
H         -2.30536       -0.68267       -0.54507
H         -1.16806       -0.44862       -1.84985
