21

C          0.93734        0.07924        0.02612
C          2.43325       -0.09327       -0.12827
O          3.16026        0.97410        0.54242
C          4.11285        0.00074        1.07871
C          5.45211        0.11499        0.34425
N          6.42207       -0.86915        0.83007
C          3.11618       -1.14735        0.76462
C          3.57363       -2.41396        0.07235
H          0.59207        0.95633       -0.53124
H          0.65122        0.21046        1.07446
H          0.40855       -0.79557       -0.36448
H          2.72621       -0.13527       -1.18560
H          4.23865        0.16179        2.15777
H          5.86741        1.11859        0.48930
H          5.31341       -0.02358       -0.73353
H          6.68447       -0.63585        1.78800
H          7.27899       -0.78169        0.28300
H          2.51899       -1.40509        1.65058
H          4.14572       -2.20326       -0.83683
H          2.71295       -3.02755       -0.21194
H          4.20223       -3.01269        0.73942
