17

C          3.03367       -1.31208       -0.15071
C          2.62720        0.14664        0.01304
C          3.10306        1.03486       -1.14173
C          2.61023        2.45795       -0.99097
O          1.89291        2.85502       -0.07758
C          4.60709        1.03261       -1.21828
N          5.21007        0.66759       -2.30243
O          6.58991        0.74634       -2.09655
H          2.67461       -1.89934        0.70045
H          4.12133       -1.42524       -0.19450
H          2.60584       -1.73849       -1.06317
H          3.02220        0.52063        0.96595
H          1.53394        0.19609        0.08626
H          2.69451        0.66090       -2.08881
H          2.92347        3.15088       -1.79207
H          5.16303        1.35582       -0.31890
H          6.94973        0.39979       -2.93526
