20

O          2.73534       -1.59474        2.28505
C          2.27459       -2.13167        1.04418
C          2.92217       -1.36338       -0.11543
O          2.50392        0.00520       -0.02890
C          4.45635       -1.38592       -0.10594
C          5.03060       -2.79604       -0.23598
C          6.53155       -2.78790       -0.25445
C          7.27126       -3.27147       -1.25938
H          2.33782       -2.13438        2.99067
H          1.18702       -2.00811        1.01831
H          2.51020       -3.19865        1.00776
H          2.54999       -1.75688       -1.06755
H          2.65675        0.26161        0.90233
H          4.83233       -0.90204        0.80544
H          4.81912       -0.75782       -0.93147
H          4.63438       -3.26952       -1.14280
H          4.71660       -3.41381        0.61222
H          7.03254       -2.37811        0.62095
H          6.81852       -3.69732       -2.14945
H          8.35560       -3.25237       -1.20884
