16

C          0.95123       -0.16889        0.08672
C          2.46657       -0.10365        0.02269
N          3.00462       -1.34638       -0.62167
C          4.03227       -0.90966       -1.28466
N          4.29495        0.42821       -1.27865
C          3.08799        1.07262       -0.76035
C          2.25664        1.58841       -1.92702
O          2.73958        1.87559       -3.02363
H          0.63562       -0.98966        0.73997
H          0.50677       -0.35641       -0.89609
H          0.53721        0.76017        0.49166
H          2.85418       -0.08740        1.05049
H          4.69478       -1.53660       -1.90288
H          4.62770        0.81235       -2.16218
H          3.32062        1.91502       -0.10148
H          1.19569        1.79899       -1.71784
