18

C          1.03264        0.79869       -1.32877
C          2.53164        0.82045       -1.41650
O          3.14610        0.52790       -2.43891
N          3.14104        1.22963       -0.23777
N          4.55255        1.27599       -0.16370
C          5.03953        2.60933       -0.54010
C          6.53419        2.64458       -0.45661
C          7.34205        2.91773       -1.49033
H          0.61789        0.39928       -2.25869
H          0.65805        1.81543       -1.18144
H          0.71346        0.16079       -0.49984
H          2.60557        1.31380        0.62252
H          4.91012        0.62254       -0.87371
H          4.63680        3.35997        0.15090
H          4.69941        2.87061       -1.55002
H          6.97220        2.44293        0.51872
H          6.94865        3.12364       -2.48179
H          8.41985        2.93264       -1.36540
