21

C          2.89540        1.46627        0.43936
C          2.55751        0.00555        0.14359
N          1.10010       -0.17015        0.15946
C          3.09878       -0.47214       -1.21622
C          4.63085       -0.42350       -1.31117
O          5.22175       -1.22068       -0.29058
C          5.12614       -0.93654       -2.63354
C          5.82508       -0.20331       -3.51139
H          2.44476        1.78766        1.38508
H          2.53084        2.12969       -0.35253
H          3.97460        1.61245        0.53641
H          2.97280       -0.62208        0.94018
H          0.66827        0.46286       -0.51383
H          0.73650        0.10728        1.07154
H          2.66127        0.12508       -2.02751
H          2.76469       -1.50846       -1.37186
H          4.98474        0.60083       -1.16433
H          4.70746       -2.04258       -0.21961
H          4.90398       -1.97252       -2.88012
H          6.08347        0.83541       -3.30963
H          6.16194       -0.62798       -4.45063
