13

C         -2.10776       -0.08967       -0.22804
C         -1.31249        1.25647        0.09170
C          0.04579        0.73557        0.09710
C         -0.00227       -0.59951       -0.05496
O         -1.14949       -1.22208       -0.20931
O          1.22562       -1.12730       -0.11190
C          1.98969        0.02111        0.02872
N          1.32071        1.16721        0.15069
H         -2.54982       -0.04672       -1.23004
H         -2.89432       -0.27666        0.51006
H         -1.61161        1.64835        1.06841
H         -1.49738        2.00950       -0.67807
H          3.06133       -0.12330        0.01552
