19

C          1.05315        0.13845        0.04922
C          2.55479       -0.04930       -0.14127
C          2.92271       -1.52100       -0.40734
N          2.89666       -1.68797       -1.87448
C          3.32450       -0.37576       -2.41367
C          2.38311        0.76455       -2.67271
O          2.85169        1.80076       -3.55398
C          3.10194        0.67194       -1.34949
H          0.71410       -0.39195        0.94566
H          0.47331       -0.24981       -0.79439
H          0.80591        1.19880        0.16607
H          3.06923        0.30006        0.76184
H          2.26598       -2.23311        0.10090
H          3.94824       -1.70884       -0.06504
H          1.93503       -1.87443       -2.16283
H          4.27615       -0.38545       -2.93438
H          1.32244        0.54968       -2.71492
H          3.82288        1.84215       -3.59490
H          3.91515        1.34754       -1.12511
