17

C          3.70990        0.75400        0.47116
C          2.53464       -0.05906       -0.05790
O          1.68473        0.80921       -0.80679
C          2.96750       -1.23627       -0.88342
C          3.72693       -1.22539       -2.04208
N          3.88410       -2.51628       -2.47408
C          3.23932       -3.36371       -1.61548
C          2.66149       -2.60390       -0.62373
H          3.35010        1.59762        1.07042
H          4.29938        1.18245       -0.34735
H          4.37375        0.14205        1.09022
H          1.94607       -0.41251        0.79668
H          2.08587        0.89396       -1.68749
H          4.17176       -0.40775       -2.59396
H          4.39567       -2.79882       -3.30031
H          3.24217       -4.43238       -1.78388
H          2.07600       -2.98997        0.20139
