18

C          1.04150       -0.06985       -0.38605
N          2.49753       -0.03149       -0.30477
N          3.05557        1.15370       -0.63397
C          4.34687        1.18172       -0.53739
C          5.13604        2.43523       -0.85867
O          6.04433        2.14085       -1.91948
C          4.23663        3.62308       -1.22274
O          5.00082        4.77914       -1.57048
H          0.67760       -1.06367       -0.11065
H          0.70564        0.14328       -1.40587
H          0.59490        0.66334        0.29334
H          2.78538       -0.35546        0.62246
H          4.93755        0.30162       -0.21886
H          5.74922        2.67867        0.01506
H          5.52959        2.15117       -2.74796
H          3.57827        3.88480       -0.38809
H          3.61136        3.38953       -2.09096
H          5.80689        4.78360       -1.02652
