18

C          0.82204        0.02799       -0.00208
C          2.35105        0.01818        0.04814
N          2.79181        1.34698        0.50101
N          3.98711        1.79189        0.03446
C          4.37187        2.89538        0.58131
C          2.83891       -1.09650        0.94095
C          4.29821       -1.26865        1.27379
O          3.36831       -0.71499        2.22081
H          0.45436        0.81338       -0.67294
H          0.38492        0.18511        0.99000
H          0.44551       -0.93006       -0.38043
H          2.71701       -0.16483       -0.97020
H          2.74297        1.35293        1.52589
H          5.33151        3.34398        0.27949
H          3.78727        3.44139        1.34265
H          2.23433       -1.99234        0.88481
H          5.01746       -0.60404        0.81132
H          4.66536       -2.26963        1.46051
