14

C          1.05581        0.07891       -0.02880
C          2.39278        0.02761       -0.06091
C          3.10062       -1.09411       -0.73233
O          2.53007       -2.02408       -1.28860
C          4.60417       -1.08421       -0.72678
N          5.25617       -0.12600       -0.15197
N          6.62769       -0.31447       -0.26528
C          7.26376        0.64917        0.31207
H          0.54567        0.90085        0.46319
H          0.44303       -0.69172       -0.48879
H          2.99313        0.80218        0.40152
H          5.07977       -1.93780       -1.23910
H          8.36412        0.65777        0.31705
H          6.75389        1.48892        0.81534
