18

C          1.04133       -0.02938       -0.00648
C          2.52966       -0.08289        0.00888
C          3.34343       -0.81584       -1.02354
O          2.64192       -1.45970       -2.09654
C          3.32997        0.69454       -1.01380
C          4.53237        1.42835       -0.56165
N          4.35548        2.59650       -0.04098
N          5.50059        3.18198        0.37770
H          0.63591       -0.73220        0.72838
H          0.61073       -0.27651       -0.98038
H          0.70109        0.97493        0.26508
H          2.90204       -0.07865        1.02966
H          4.23760       -1.31905       -0.66585
H          1.97868       -0.88816       -2.51746
H          2.78158        1.19751       -1.80277
H          5.51749        0.94535       -0.68279
H          5.30358        4.13445        0.69440
H          6.19320        3.26542       -0.36782
