19

C          0.86981        0.07007        0.06722
C          2.40423        0.03696       -0.00549
C          2.92800        1.47008        0.20885
C          2.95970       -0.80531        1.14332
O          2.27522       -1.43735        1.94350
C          2.95693       -0.50405       -1.31542
C          2.60100       -1.88507       -1.81768
N          2.15475       -0.68573       -2.52155
H          0.52708        0.43907        1.04144
H          0.43484       -0.92613       -0.06814
H          0.44553        0.72918       -0.69829
H          2.57904        1.88305        1.16230
H          2.59397        2.13551       -0.59519
H          4.02338        1.49808        0.22533
H          4.06142       -0.83669        1.21583
H          3.98316       -0.19034       -1.49139
H          1.84261       -2.46700       -1.30889
H          3.37301       -2.46257       -2.31310
H          1.15492       -0.54114       -2.37174
