20

C          2.13443       -0.84730       -1.62595
N          3.08089       -0.35844       -0.62849
N          3.72450        0.78516       -0.95965
C          4.49881        1.23210       -0.02529
C          5.30137        2.48464       -0.25205
C          6.79582        2.19279       -0.22153
C          7.24038        1.24324       -1.32863
O          8.64737        1.05210       -1.24856
H          1.67145       -1.77462       -1.27608
H          2.63776       -1.05005       -2.57664
H          1.33810       -0.11568       -1.79546
H          3.73944       -1.11042       -0.40993
H          4.61570        0.72828        0.95222
H          5.04940        3.18615        0.55037
H          5.01647        2.94181       -1.20580
H          7.08317        1.77198        0.75037
H          7.34896        3.13609       -0.31260
H          6.99578        1.63668       -2.32025
H          6.76992        0.26136       -1.22126
H          9.07044        1.90291       -1.45716
