18

C          0.96821        0.05422       -0.08152
C          2.48639       -0.12777       -0.03032
O          2.86119       -1.49338       -0.28725
N          2.34601       -2.29477        0.74171
C          3.31098       -2.93826        1.46701
N          4.53456       -2.58051        1.63694
C          3.12539        0.69359       -1.12104
C          3.98737        1.69838       -0.92513
H          0.48048       -0.49044        0.73418
H          0.55312       -0.34281       -1.01512
H          0.68759        1.10880        0.00882
H          2.87185        0.17566        0.95124
H          1.58194       -2.88875        0.42560
H          2.92979       -3.84915        1.95918
H          4.67119       -1.72302        1.09089
H          2.85313        0.43159       -2.14188
H          4.30253        2.00165        0.06897
H          4.40423        2.24246       -1.76902
