19

C         -1.31771        0.95553       -1.00624
O         -1.66131       -0.19632       -0.21504
C         -0.73153       -0.22238        0.88810
C         -0.52241        1.24559        1.20221
C         -0.26146        1.72411       -0.21131
C          1.15952        1.31302       -0.61276
N          1.58871       -0.03275       -0.22610
C          0.56993       -0.89550        0.39607
H         -2.22887        1.54762       -1.13360
H         -0.97457        0.62604       -1.99235
H         -1.17642       -0.77877        1.71848
H          0.29513        1.43916        1.90152
H         -1.44184        1.69854        1.59247
H         -0.38070        2.80574       -0.33350
H          1.85748        2.02526       -0.15641
H          1.28820        1.42438       -1.69665
H          2.40154        0.02653        0.38407
H          1.04371       -1.39732        1.24798
H          0.31787       -1.67986       -0.32598
