15

C          1.19240        0.16815       -0.19914
C          2.69290        0.05360       -0.15849
O          3.27062       -0.98254       -0.48140
N          3.36623        1.18794        0.20385
C          2.90810        2.57585        0.33009
C          4.25654        2.99261       -0.28771
O          4.73059        4.03989       -0.66854
C          4.73146        1.52857       -0.22658
H          0.74756       -0.83050       -0.16548
H          0.90086        0.65575       -1.13436
H          0.81481        0.74162        0.65116
H          2.78290        2.88687        1.37039
H          2.03418        2.83086       -0.27032
H          5.48598        1.32989        0.53708
H          5.01506        1.10540       -1.19251
