16

C          2.34624        0.46616        1.32117
C          2.58569       -0.02217       -0.09908
N          3.07125       -1.39353       -0.04837
O          2.19683       -2.34307       -0.58162
C          4.40405       -1.72492       -0.16492
N          5.40116       -0.90678       -0.07354
C          6.65050       -1.46143       -0.20810
O          6.91708       -2.64841       -0.35433
H          1.95616        1.48802        1.31300
H          3.27480        0.45469        1.89985
H          1.62372       -0.17501        1.83611
H          3.29304        0.63345       -0.61406
H          1.64421        0.02717       -0.66010
H          1.38414       -2.22920       -0.05419
H          4.53986       -2.81011       -0.33506
H          7.46597       -0.71895       -0.16756
