19

C          1.29486       -0.35311        0.93342
C          2.68622        0.26730        0.82133
C          3.87060       -0.70687        1.02963
C          3.83051       -1.85805        0.01576
N          5.15959        0.02324        0.82394
C          3.91046       -1.30685        2.46379
O          5.08504       -1.95546        2.68908
O          3.05862       -1.17256        3.32783
H          0.55396        0.31633        0.48276
H          1.00698       -0.49626        1.97875
H          1.22058       -1.31533        0.41980
H          2.75003        1.10193        1.53033
H          2.76400        0.70705       -0.18233
H          3.53811       -1.51208       -0.98117
H          3.13297       -2.64210        0.33135
H          4.80892       -2.34434       -0.08597
H          5.46449        0.41689        1.72294
H          4.97624        0.85838        0.25958
H          5.66822       -1.86236        1.90393
