15

C          3.47854        1.17070        0.43037
C          2.64884       -0.00959       -0.00798
O          1.42104        0.05468       -0.01270
C          3.37970       -1.24170       -0.45950
C          2.74661       -2.36653       -0.83730
N          1.41060       -2.65259       -0.85021
C          4.89970       -1.24170       -0.45950
C          6.20355       -1.24170       -0.45950
H          2.81932        1.98714        0.73196
H          4.09951        1.52268       -0.39882
H          4.09981        0.89835        1.29047
H          3.33835       -3.22208       -1.16194
H          0.77347       -1.86188       -0.72122
H          1.07417       -3.45274       -1.37457
H          7.26916       -1.24528       -0.46035
