21

C          1.03324        0.11908        0.11713
C          2.54919        0.11476        0.10462
O          2.99013       -1.17046        0.52831
C          4.41572       -1.27733        0.51254
C          4.85578       -2.66350        0.93313
C          3.99977       -3.65482        1.24672
C          6.34356       -2.86995        1.02100
N          6.97971       -2.68687       -0.27663
H          0.64126        1.09290       -0.19048
H          0.65507       -0.11561        1.11779
H          0.64122       -0.64869       -0.55814
H          2.93159        0.88076        0.78821
H          2.91303        0.32105       -0.90796
H          4.83344       -0.53729        1.20563
H          4.77508       -1.06405       -0.50047
H          2.92465       -3.50595        1.20080
H          4.34405       -4.63483        1.55862
H          6.58250       -3.87379        1.39178
H          6.76818       -2.15891        1.73822
H          6.61268       -3.39111       -0.91617
H          7.97445       -2.88556       -0.18596
