20

C          1.06767       -0.08587        0.09293
N          2.51515       -0.09211       -0.07114
C          3.15150        0.96477        0.76722
C          4.26333       -0.07251        1.10007
N          4.55463       -0.03512        2.54979
C          5.49404       -0.09486        0.20490
O          6.40692       -1.10227        0.64769
C          3.14333       -1.11563        0.81716
H          0.63890        0.76708       -0.44445
H          0.73797       -0.02962        1.13697
H          0.64074       -0.99303       -0.34825
H          2.55559        1.30629        1.62564
H          3.47909        1.84710        0.20782
H          5.18230        0.71429        2.83326
H          4.94852       -0.90807        2.89980
H          6.01716        0.86720        0.22863
H          5.23662       -0.30775       -0.83752
H          6.72755       -0.81928        1.51936
H          2.54347       -1.40986        1.68998
H          3.46215       -2.02588        0.29889
