16

C          0.91347       -0.06731        0.00562
C          2.43209       -0.01476       -0.08041
O          2.98187       -1.19217        0.50071
C          2.92449        0.09339       -1.49407
N          2.68611        1.28641       -2.30257
C          4.05496        1.04505       -1.81825
C          5.08440        0.60815       -2.72209
N          5.93208        0.25688       -3.43085
H          0.59482       -0.17974        1.04722
H          0.51335       -0.92438       -0.54630
H          0.46056        0.84326       -0.39937
H          2.78856        0.83011        0.51868
H          2.59341       -1.96212        0.04921
H          2.86030       -0.84488       -2.03574
H          2.24310        2.03151       -1.76252
H          4.39031        1.72875       -1.04528
