23

C          0.91341        0.03275        0.01719
N          2.36926        0.00117        0.06931
C          2.95645        0.92654       -0.90438
C          4.51248        0.95211       -0.88493
C          5.02883        1.36111        0.50868
C          5.09306       -0.43067       -1.24099
C          4.96941        1.98767       -1.94176
O          6.38543        2.08033       -2.04211
H          0.50830       -0.66377        0.75778
H          0.54043       -0.26823       -0.96720
H          0.52944        1.02933        0.25783
H          2.68429       -0.94878       -0.12452
H          2.58690        1.93971       -0.69730
H          2.61450        0.65744       -1.91239
H          4.68873        0.66783        1.28552
H          4.67790        2.36342        0.77830
H          6.12348        1.36778        0.54762
H          4.83396       -1.18611       -0.49176
H          6.18673       -0.40342       -1.29887
H          4.71696       -0.77593       -2.21047
H          4.57990        2.98658       -1.71413
H          4.59479        1.71020       -2.93341
H          6.71398        2.50001       -1.22853
