21

C          0.95734       -0.06498        0.14466
C          2.49069       -0.09460        0.00984
N          3.05344        0.24171        1.32738
C          2.98638       -1.49078       -0.40310
C          2.65701       -1.79427       -1.86130
O          3.18055       -0.78752       -2.72541
C          2.65182        0.50745       -2.44610
C          2.97907        0.93851       -1.01988
H          0.61097       -0.79137        0.88958
H          0.45075       -0.30175       -0.79556
H          0.60620        0.92489        0.45978
H          2.72916       -0.42368        2.02845
H          2.72267        1.15828        1.62758
H          2.56689       -2.26978        0.24487
H          4.07863       -1.53089       -0.28883
H          1.57866       -1.89294       -2.02664
H          3.11472       -2.74623       -2.14984
H          1.57350        0.51083       -2.63846
H          3.10661        1.20825       -3.15399
H          2.55370        1.92967       -0.82185
H          4.07086        1.03498       -0.93926
