17

C          0.90385        0.03688       -0.01261
C          2.39057       -0.06739       -0.00594
C          3.19281       -0.81493       -1.03792
N          2.55349       -1.53938       -2.13809
C          3.20086        0.69702       -1.03545
C          4.42581        1.42349       -0.60891
O          4.84302        2.35509       -1.49588
O          4.99702        1.19757        0.44449
H          0.47690       -0.66088        0.71341
H          0.46069       -0.17550       -0.98810
H          0.60255        1.04952        0.27675
H          2.76751       -0.07901        1.01426
H          4.09613       -1.30410       -0.66953
H          1.72965       -1.06182       -2.49998
H          2.22523       -2.45210       -1.81701
H          2.63138        1.18389       -1.82087
H          4.31238        2.38072       -2.31136
