22

C          1.50425        0.43101        0.39589
C          2.93904        0.28404       -0.03552
C          3.12430        0.14859       -1.51560
C          3.77377        1.33711       -0.81766
C          5.29339        1.33754       -0.95814
N          5.97340        0.22419       -0.32354
C          3.19128        2.74506       -0.87677
N          2.78519        3.09078       -2.22748
H          1.26235       -0.31473        1.15865
H          0.81154        0.26712       -0.43909
H          1.28895        1.41238        0.82279
H          3.47558       -0.36721        0.63961
H          2.29893        0.35355       -2.19578
H          3.72472       -0.69244       -1.84359
H          5.53746        1.33294       -2.02867
H          5.71856        2.26169       -0.55593
H          5.69597       -0.64641       -0.76836
H          5.68107        0.16364        0.64893
H          3.93011        3.47813       -0.51596
H          2.33921        2.86020       -0.21321
H          3.60687        3.15424       -2.82000
H          2.37047        4.02222       -2.21049
