21

C          1.01489       -0.57012        0.77513
N          2.43326       -0.34767        0.50315
C          2.66964        1.02879        0.08089
C          4.09999        1.30086       -0.34560
C          4.05656        2.81284       -0.48491
O          3.15300        3.30513        0.52331
C          2.45204        2.17173        1.09210
C          3.02920        1.93818        2.48725
H          0.81485       -1.64619        0.84811
H          0.37670       -0.17244       -0.01931
H          0.72208       -0.11587        1.72449
H          2.71842       -0.97258       -0.24573
H          2.04163        1.23269       -0.79855
H          4.39199        0.80110       -1.27380
H          4.81230        1.00946        0.43308
H          3.64584        3.10098       -1.45762
H          5.03555        3.28444       -0.36801
H          1.38920        2.42051        1.17583
H          4.12421        1.93488        2.48058
H          2.67443        1.00572        2.93330
H          2.73661        2.76298        3.14682
