19

C         -1.42500       -0.07145        1.09021
C         -1.23534       -0.69518       -0.27023
C          0.00524       -1.42925       -0.66618
N          1.14843       -1.25438        0.23129
C          1.85137        0.01595       -0.00624
C          1.08650        1.28420        0.38925
O         -0.04456        1.50150       -0.44535
C         -1.26679        0.80533       -0.12414
H         -0.63957       -0.18092        1.82449
H         -2.41283       -0.13383        1.53540
H         -2.10525       -1.14416       -0.73958
H          0.27139       -1.19257       -1.70354
H         -0.24329       -2.49736       -0.65972
H          1.80598       -2.01138        0.04553
H          2.15153        0.07497       -1.05968
H          2.77445       -0.01082        0.58462
H          1.75141        2.14106        0.23063
H          0.81998        1.30852        1.45042
H         -2.17276        1.29897       -0.46839
