19

C          0.65852        0.03800       -0.33264
C          2.13087       -0.02875       -0.00058
C          3.04306       -0.76775       -0.94975
C          3.05988        0.73142       -0.92252
N          2.49139        0.00283        1.43036
C          1.99771       -1.12085        2.22171
C          2.43464       -0.90714        3.66179
C          2.80943       -0.72382        4.89709
H          0.48752        0.11286       -1.41233
H          0.20229        0.91405        0.13983
H          0.13926       -0.85848        0.01920
H          2.61294       -1.25003       -1.81976
H          3.90669       -1.28408       -0.54478
H          2.64040        1.26120       -1.77010
H          3.93070        1.21795       -0.49454
H          2.17865        0.87376        1.86053
H          2.40762       -2.06796        1.85596
H          0.90451       -1.17588        2.20052
H          3.12246       -0.57270        5.90418
