16

C          1.02148        0.00658       -0.04782
N          2.47700        0.07726        0.06190
C          3.09428        0.64482        1.17111
C          2.50274        1.16959        2.24949
C          3.14327       -0.46117       -1.05107
O          2.56137       -0.99506       -2.00089
N          4.51799       -0.34245       -1.08398
O          5.14756       -1.01416       -2.16687
H          0.48703        0.43416        0.80175
H          0.72030       -1.04106       -0.15146
H          0.71087        0.54657       -0.95029
H          4.17809        0.66588        1.17155
H          1.43422        1.22722        2.40364
H          3.11639        1.57834        3.05099
H          5.08209       -0.27395       -0.25091
H          4.37433       -1.33314       -2.68519
