16

C          1.72757       -0.36030        0.46774
C          3.00592        0.25514       -0.02751
C          3.24161        1.68771        0.37262
O          4.35214        2.23713       -0.34380
N          5.58695        1.59902       -0.07262
C          5.55143        0.29710       -0.05369
C          4.30205       -0.50074       -0.11202
N          3.50560       -0.28745       -1.31310
H          1.35393        0.15552        1.35831
H          1.84786       -1.41957        0.71512
H          0.95366       -0.27771       -0.30547
H          3.44773        1.75780        1.44885
H          2.36275        2.30100        0.15722
H          6.49751       -0.25429        0.06339
H          4.35240       -1.50593        0.28975
H          3.01307       -1.14393       -1.57192
