19

C          1.06433       -0.00547       -0.08578
C          2.55398        0.16242       -0.08121
C          3.47315       -0.56027       -1.10314
N          4.55679       -0.27501       -0.06178
C          3.44069       -0.61084        0.93359
C          4.60646        1.21719       -0.00984
C          3.11611        1.57466        0.00706
O          2.70272        2.36306       -1.10131
H          0.78544       -1.06395       -0.11447
H          0.61331        0.47858       -0.95785
H          0.61567        0.43174        0.81216
H          3.62422       -0.08793       -2.07948
H          3.27467       -1.62716       -1.27196
H          3.55482       -0.17895        1.93464
H          3.23958       -1.68446        1.04546
H          5.14201        1.62606       -0.87299
H          5.11091        1.54266        0.90643
H          2.82289        2.08051        0.93319
H          3.14436        2.03398       -1.90227
