17

C          0.99420        0.04072       -0.13692
C          2.51918        0.03442       -0.10357
C          3.07843       -1.23812        0.55450
C          3.37116       -0.87235        2.01261
C          3.53676        0.61009        1.95164
C          3.07069        1.09990        0.79621
C          3.11323        2.57215        0.42062
N          3.14852        3.79350        0.10903
H          0.62148       -0.78166       -0.75673
H          0.61501        0.97721       -0.55973
H          0.56367       -0.07347        0.86465
H          2.91154        0.13050       -1.12239
H          4.01853       -1.51827        0.05926
H          2.40699       -2.09946        0.47495
H          4.27737       -1.37057        2.36840
H          2.53664       -1.13545        2.67065
H          3.96729        1.19771        2.75156
