19

C          0.91380        0.09213        0.22244
C          2.41744        0.08625       -0.04823
C          2.88479       -1.18998       -0.71677
C          2.18497       -1.83786       -1.88297
N          3.28646       -0.91702       -2.13517
C          2.88126        0.48895       -2.38750
C          2.82218        1.14822       -1.03620
C          3.26476        2.37418       -0.73147
H          0.63863       -0.74068        0.87992
H          0.32434       -0.00543       -0.69612
H          0.60895        1.02371        0.70536
H          2.95514        0.21642        0.89828
H          3.61086       -1.74986       -0.14269
H          1.18404       -1.53442       -2.16435
H          2.40300       -2.88121       -2.07358
H          1.90703        0.54577       -2.88602
H          3.62093        0.96933       -3.03665
H          3.65321        3.03905       -1.49959
H          3.30033        2.72639        0.29494
