21

C          2.83194        1.36824       -0.71682
C          2.49039        0.09571        0.04946
O          1.06571       -0.04955        0.07262
C          3.12651       -1.20458       -0.50716
N          2.67208       -1.53867       -1.88481
C          4.67532       -1.22564       -0.49424
C          5.27839       -1.04122        0.88904
O          5.11469       -2.50020       -0.98651
H          2.32102        2.22487       -0.26241
H          2.48418        1.32123       -1.75392
H          3.90544        1.57125       -0.71225
H          2.79436        0.22300        1.09285
H          0.73464        0.05408       -0.83196
H          2.76769       -2.04060        0.10696
H          2.94983       -0.79999       -2.53141
H          1.65518       -1.57797       -1.89715
H          5.07995       -0.46524       -1.17379
H          4.88289       -1.78684        1.58706
H          5.08276       -0.04320        1.29036
H          6.36353       -1.18896        0.85435
H          4.40553       -2.79203       -1.59577
