17

C          2.30359       -1.09265       -0.58123
C          2.31719        0.10350        0.02239
C          2.98174        0.42825        1.28322
N          4.42803        0.23821        1.38229
C          3.92187        1.61106        1.32310
C          4.00723        2.46655        2.54747
C          3.34961        3.81325        2.38043
O          2.81020        4.20543        1.35006
H          1.76663       -1.24003       -1.51244
H          2.82278       -1.94519       -0.15413
H          1.76493        0.91729       -0.44673
H          2.42355        0.17544        2.17951
H          4.80523       -0.04651        0.47517
H          4.15468        2.15047        0.41096
H          5.05757        2.64843        2.79877
H          3.53427        1.98056        3.40808
H          3.38685        4.46382        3.27110
