15

C          0.99275        0.07711        0.11999
C          2.34273        0.52650        0.58057
C          3.52228        0.11933        0.08659
C          3.64805       -0.86535       -0.99308
N          2.90245       -1.86643       -1.29407
O          3.50886       -2.46518       -2.41453
C          4.65031       -1.66486       -2.70914
O          4.74989       -0.64399       -1.74028
H          0.21663        0.60158        0.68712
H          0.85135       -0.99427        0.28827
H          0.84152        0.31112       -0.93818
H          2.35015        1.26279        1.38171
H          4.45128        0.52378        0.47331
H          4.53527       -1.22223       -3.70330
H          5.54833       -2.28916       -2.68658
