17

C          0.95007       -0.08818       -0.33948
C          2.21864        0.19191        0.38538
C          3.32901        1.09175       -0.12787
C          3.52764        1.45340       -1.55642
N          4.80074        2.13751       -1.77684
C          3.60917        0.07284       -2.12644
N          3.55039       -0.87637       -1.24386
N          3.51763       -0.37076        0.03439
H          0.22561        0.70432       -0.12391
H          0.52109       -1.03131        0.01567
H          1.04877       -0.15175       -1.42595
H          2.03132        0.22020        1.45522
H          3.82016        1.73325        0.59024
H          2.69160        2.00488       -1.99354
H          5.54269        1.57813       -1.34585
H          4.79880        3.02344       -1.27417
H          3.67860       -0.09648       -3.21025
