17

C          0.98709       -0.11373        0.08819
C          2.50840       -0.05193        0.04736
C          2.99928        1.37119       -0.18446
C          3.06456       -0.56345        1.35395
N          3.84859       -1.58934        1.37355
O          4.22826       -1.85931        2.70051
C          5.06599       -2.94203        2.73630
O          5.47389       -3.62934        1.81165
H          0.55821        0.22657       -0.85998
H          0.58132        0.51226        0.89083
H          0.64488       -1.13902        0.26686
H          2.87153       -0.69295       -0.76460
H          2.66534        2.04569        0.61193
H          2.62956        1.76012       -1.13889
H          4.09414        1.40527       -0.20548
H          2.77677       -0.02616        2.27635
H          5.33882       -3.11690        3.78843
