17

C          1.05124        0.05880        0.04018
C          2.57823        0.08277        0.06255
N          3.08809       -0.10803       -1.29197
C          3.11303        1.35011        0.68976
C          4.23226        1.98839        0.29912
C          4.82472        3.18517        0.92394
O          3.94392        3.98520        1.55423
O          6.01384        3.44129        0.83289
H          0.68453       -0.88327       -0.38396
H          0.63757        0.88104       -0.55405
H          0.64527        0.13807        1.05450
H          2.92307       -0.75466        0.68043
H          2.67812        0.58932       -1.91236
H          2.77141       -1.00909       -1.64908
H          2.56202        1.69687        1.55994
H          4.85004        1.57918       -0.49655
H          3.01566        3.74301        1.40049
