18

C          1.12435        0.03990        0.30823
C          2.63682       -0.00365        0.17934
N          3.12915       -1.15936        0.91796
C          4.38916       -1.35828        0.91033
N          5.41018       -0.67772        0.31666
C          6.55517       -1.53789        0.19557
C          6.29775       -2.51504        1.32582
O          4.87843       -2.46816        1.53889
H          0.71251        0.85554       -0.29381
H          0.82561        0.19546        1.35019
H          0.67445       -0.89936       -0.03153
H          3.06132        0.92723        0.57316
H          2.89570       -0.08910       -0.88231
H          5.16853       -0.08624       -0.46477
H          7.50419       -1.00846        0.30048
H          6.53124       -2.04733       -0.77431
H          6.79814       -2.21758        2.25323
H          6.60015       -3.53370        1.06553
