16

C          1.17433       -0.19751       -0.13026
C          2.50347       -0.29147       -0.04844
N          3.10510       -1.02580        0.93192
C          4.46850       -1.07535        1.16235
O          5.31781       -0.47913        0.51068
N          4.72526       -1.86459        2.29223
C          6.05756       -2.23830        2.65363
C          5.26176       -1.28328        3.48024
H          0.71122        0.39705       -0.91174
H          0.51533       -0.68920        0.57556
H          3.15762        0.22104       -0.75301
H          2.54094       -1.51989        1.60840
H          6.85044       -1.84677        2.03070
H          6.14994       -3.26518        2.97426
H          5.47033       -0.22351        3.41865
H          4.77157       -1.63405        4.37710
