17

C          1.00358       -0.10571        0.03931
C          2.51939        0.02931        0.14362
O          3.14342       -1.16117       -0.32887
N          3.74848       -1.19746       -1.58933
C          4.10326       -0.08845       -2.14488
C          3.83045        1.29181       -1.67661
C          3.02279        1.35538       -0.40940
O          3.83766        2.00878        0.59193
H          0.66748       -1.05558        0.47080
H          0.66824       -0.08099       -1.00009
H          0.51384        0.70634        0.58796
H          2.73384        0.00651        1.21909
H          4.66605       -0.16554       -3.09181
H          3.27658        1.77670       -2.48968
H          4.79133        1.81756       -1.60363
H          2.18898        2.04183       -0.55494
H          4.55287        1.39833        0.83757
