18

C          1.28737       -0.07181       -0.25223
C          2.59407        0.01939        0.02354
C          3.49207       -1.08399        0.32155
C          3.92736       -1.36720        1.73193
C          4.80305       -0.51934        0.84683
C          4.67232        1.02539        0.88023
C          3.56959        1.84632        1.49889
C          3.35992        1.25408        0.13904
H          0.78503       -1.03278       -0.28267
H          0.69184        0.81734       -0.42904
H          3.54857       -1.88443       -0.40939
H          4.27131       -2.37014        1.96096
H          3.39457       -0.89983        2.55108
H          5.72320       -0.94551        0.46554
H          5.54619        1.58045        0.55242
H          3.70755        2.92000        1.55808
H          3.01889        1.43898        2.33832
H          3.39184        1.89458       -0.73407
