18

C          1.49554        0.21068        0.54824
C          2.79514       -0.14758       -0.09973
C          3.54377        0.97708       -0.78111
C          4.19636        0.30660        0.38931
C          5.11772       -0.83155        0.11624
C          6.45172       -0.85190        0.17289
C          4.31144       -1.95329       -0.32550
C          3.03338       -1.56526       -0.46383
H          1.42971        1.27677        0.78861
H          1.32507       -0.35903        1.46580
H          0.67487       -0.01303       -0.14625
H          3.21375        1.99953       -0.62450
H          3.93753        0.80743       -1.77679
H          4.27318        0.79950        1.34848
H          7.01627        0.02874        0.45477
H          7.01711       -1.73945       -0.10680
H          4.69535       -2.94097       -0.53713
H          2.23374       -2.22413       -0.77144
