21

C          2.51137       -1.91542       -1.77069
N          2.52086       -0.64572       -2.48830
C          1.24594        0.06069       -2.46887
C          2.40655        0.51304       -1.60842
C          3.19715        1.73718       -1.96514
C          4.37676        1.96063       -1.01900
C          5.37462        0.80806       -1.01334
O          6.44629        1.11137       -0.12733
H          2.18817       -2.71513       -2.44464
H          1.86009       -1.93214       -0.88886
H          3.52830       -2.15319       -1.44127
H          0.39885       -0.41316       -1.98647
H          1.00416        0.63359       -3.35564
H          2.30108        0.36923       -0.53825
H          3.56251        1.68297       -2.99884
H          2.53575        2.61016       -1.91176
H          4.01281        2.12465        0.00301
H          4.89441        2.88622       -1.30008
H          5.78554        0.62769       -2.01143
H          4.91313       -0.11665       -0.65587
H          6.91265        1.88489       -0.49054
