15

C         -2.18730       -0.03217       -0.19313
C         -1.31965        1.25385        0.10879
C          0.00290        0.63950        0.08689
C          0.04983       -0.71353        0.07757
C         -1.29158       -1.30591        0.10296
N          1.32552       -1.14571        0.00305
C          1.99799        0.00011       -0.02826
O          1.23791        1.15491        0.01339
H         -2.45317       -0.03317       -1.25917
H         -3.12144       -0.04387        0.37749
H         -1.56065        1.65459        1.09766
H         -1.46471        2.02042       -0.65561
H         -1.52521       -1.70928        1.09336
H         -1.43957       -2.07713       -0.65667
H          3.06806        0.14081       -0.08996
