12

C          1.09580       -0.04312       -0.01190
C          2.42849        0.06071       -0.07706
C          3.06760        1.37703       -0.10728
N          2.55955        2.56443       -0.08089
N          3.66292        3.35475       -0.13466
C          4.80859        2.61218       -0.19216
O          5.95668        3.01365       -0.24852
O          4.41933        1.30844       -0.17422
H          0.61561       -1.01597        0.01077
H          0.45272        0.83266        0.02033
H          3.06700       -0.81385       -0.10909
H          3.61526        4.36439       -0.13132
