17

C          1.85668        0.07536        0.91403
C          2.14854       -0.00076       -0.55093
C          0.71433        0.14084       -0.08515
N          0.08278        1.47726       -0.21977
C         -1.29754        1.25694        0.18693
C         -1.49712       -0.16770       -0.18055
O         -1.27071       -1.13540        0.85535
C         -0.26996       -1.04888       -0.16437
H          2.11613        0.98374        1.44553
H          1.94948       -0.82469        1.51021
H          2.47156       -0.95678       -0.94596
H          2.63441        0.85265       -1.00874
H          0.09111        1.73947       -1.20492
H         -1.98268        1.92537       -0.34170
H         -1.41160        1.41473        1.26441
H         -2.29124       -0.35069       -0.88710
H         -0.18345       -1.80869       -0.92600
