21

C          0.86222       -0.09810        0.09211
C          2.37757       -0.01120       -0.01473
N          2.99359       -0.73464        1.09891
C          4.47597       -0.71884        1.11755
C          5.08492       -1.36972       -0.13181
C          5.03469        0.69800        1.30867
C          4.89232       -1.51864        2.36604
O          5.50944       -2.58163        2.34666
H          0.39641        0.42326       -0.75069
H          0.50297        0.36670        1.01619
H          0.52027       -1.13846        0.07342
H          2.66210        1.04512       -0.00522
H          2.67768       -0.44066       -0.97617
H          2.68038       -1.70801        1.06249
H          4.89807       -0.77920       -1.03478
H          4.68066       -2.37602       -0.29392
H          6.17198       -1.47185       -0.03224
H          4.85222        1.33513        0.43759
H          6.11902        0.66958        1.47105
H          4.59490        1.18643        2.18653
H          4.57059       -1.08401        3.32966
