21

C          0.92305        0.06065       -0.07870
N          2.37163       -0.11197       -0.07974
C          2.81629       -1.26457        0.74495
C          2.34964       -2.60447        0.13339
O          2.77968       -2.71322       -1.22210
C          4.36679       -1.25658        0.84168
C          4.92140       -0.05876        1.57380
C          5.73816        0.84243        1.01364
H          0.67513        1.03094       -0.52151
H          0.50539        0.03995        0.93287
H          0.43330       -0.70240       -0.69017
H          2.79764        0.73293        0.30929
H          2.40646       -1.17479        1.75912
H          1.25824       -2.69048        0.14877
H          2.75373       -3.45546        0.69228
H          2.70243       -1.80465       -1.57955
H          4.80506       -1.32197       -0.16292
H          4.69790       -2.15355        1.38032
H          4.64531        0.05343        2.62008
H          6.04756        0.76586       -0.02491
H          6.12187        1.68271        1.58686
