17

C          2.33729       -0.31515       -0.70151
C          2.95439        0.25012        0.34513
C          3.47789        1.64529        0.30533
C          2.67147        2.70821       -0.48827
C          2.92552        3.60595        0.72980
N          3.05641        2.37424        1.55160
C          5.05060        1.63489        0.12578
O          5.68552        1.59824       -0.93007
H          1.99657       -1.34489       -0.64909
H          2.16303        0.21412       -1.63328
H          3.13346       -0.33524        1.24307
H          3.10493        3.05267       -1.43092
H          1.60880        2.48400       -0.64632
H          3.84864        4.19607        0.67608
H          2.10403        4.26827        1.01492
H          2.15247        2.05560        1.90718
H          5.60635        1.67168        1.07934
