19

C          0.91434        0.06558        0.21979
C          2.41164        0.05477        0.17653
C          3.10090       -1.09825       -0.51242
C          4.52909       -1.38120       -0.53744
C          4.85636       -0.35488       -1.57575
C          5.65368        0.81429       -1.27540
N          4.21168        1.01207       -1.35865
C          3.11201        0.18896       -1.15935
H          0.53910       -0.71147        0.89442
H          0.47331       -0.11824       -0.78170
H          0.55400        1.03334        0.57204
H          2.86312        0.42858        1.08547
H          2.49654       -1.88753       -0.94348
H          4.75958       -2.40157       -0.87710
H          5.01419       -1.20485        0.42879
H          4.82395       -0.72233       -2.59743
H          6.20259        1.27633       -2.09322
H          6.15078        0.88335       -0.31862
H          2.41382        0.29194       -1.99822
