21

C          2.00858        1.30593        0.59462
C          2.32162       -0.15788        0.31436
C          2.59014       -0.39518       -1.14610
O          3.68566        0.36843       -1.67449
C          2.45763       -1.76599       -1.74987
C          1.43605       -0.70171       -2.07039
C          1.32856       -0.03906       -3.40519
N          0.99499       -1.02066       -4.42977
H          1.84776        1.46461        1.66610
H          1.10706        1.62253        0.06040
H          2.82953        1.95425        0.27657
H          1.48268       -0.77475        0.66057
H          3.20016       -0.45912        0.89536
H          4.52217        0.11919       -1.25001
H          2.14907       -2.58736       -1.10994
H          3.16012       -2.05611       -2.52374
H          0.45241       -0.82982       -1.62854
H          0.53509        0.71459       -3.36270
H          2.24558        0.48142       -3.69694
H          0.48230       -1.79490       -4.01215
H          1.86130       -1.41690       -4.79330
