20

C          3.03280       -1.20614       -0.48821
N          2.53612        0.10848       -0.09222
C          2.96756        0.46736        1.27642
C          4.41443        0.77890        1.54384
C          3.40573        1.89371        1.55179
O          3.46392        2.76675        0.39807
C          3.07041        2.57650        2.85074
N          2.04109        3.58756        2.62010
H          2.63364       -1.47053       -1.47222
H          2.72951       -1.98136        0.22304
H          4.12468       -1.20476       -0.56652
H          1.51507        0.09670       -0.13041
H          2.42491       -0.04319        2.06934
H          5.11782        0.74752        0.72016
H          4.83314        0.45229        2.48811
H          3.03218        2.30257       -0.34628
H          3.97149        3.05798        3.24525
H          2.71384        1.86164        3.59955
H          2.34965        4.13553        1.81267
H          2.02559        4.23175        3.40836
