17

C          1.30658       -0.11458       -0.57574
C          2.64146       -0.11412       -0.47586
C          3.39110        1.16237       -0.33764
O          2.82739        2.24847       -0.27540
N          4.74886        0.99579       -0.22043
C          5.72706        2.06512       -0.05980
C          6.54534        1.39728       -1.16098
C          5.62205        0.18070       -1.05870
H          0.74925       -1.04453       -0.62184
H          0.73727        0.81261       -0.59525
H          3.19591       -1.04226       -0.42950
H          6.18354        2.04716        0.93529
H          5.36528        3.06922       -0.29227
H          7.59450        1.20933       -0.91276
H          6.49697        1.91898       -2.12350
H          6.03364       -0.67740       -0.52182
H          5.18458       -0.13618       -2.00929
