17

C          0.85063        0.05389       -0.19555
C          2.33949        0.06911        0.04868
C          3.22792       -0.65488       -0.93644
C          3.18893        0.84405       -0.94677
O          4.32920        1.52633       -0.39650
N          2.71238        0.11752        1.43447
C          2.83566       -0.97227        2.24932
O          3.16554       -0.90463        3.42575
H          0.60939        0.04866       -1.26407
H          0.38486        0.94021        0.24887
H          0.39852       -0.83575        0.25456
H          2.76317       -1.17383       -1.76783
H          4.11577       -1.15211       -0.56529
H          2.68386        1.32729       -1.77714
H          5.09071        0.93099       -0.28498
H          2.93232        1.01847        1.84979
H          2.61727       -1.92570        1.74333
