16

C          0.98430        0.11199       -0.08484
C          2.46743        0.05579       -0.08162
C          3.33665        1.13635       -0.09186
N          4.60952        0.64622       -0.08556
O          5.76828        1.40602       -0.10076
C          4.60195       -0.71272       -0.07098
C          3.28755       -1.10275       -0.06896
N          2.87451       -2.37414       -0.05627
H          0.62482        1.14623       -0.08559
H          0.58007       -0.38613        0.80251
H          0.58472       -0.38574       -0.97457
H          3.13798        2.19832       -0.10380
H          5.39788        2.29890       -0.03144
H          5.52572       -1.27150       -0.06409
H          3.52105       -3.15499       -0.10268
H          1.89642       -2.63512       -0.11253
