15

C          1.01663        0.06282        0.09953
C          2.53883        0.02876        0.07434
C          3.07894       -1.28270       -0.49806
O          2.63229       -1.46208       -1.83558
C          4.59894       -1.28270       -0.49806
C          5.90280       -1.28270       -0.49806
C          7.43757       -1.28257       -0.49872
N          8.59741       -1.27571       -0.49740
H          0.66765        1.00194        0.54058
H          0.61598       -0.76253        0.69646
H          0.60025       -0.00816       -0.91025
H          2.91938        0.17771        1.09219
H          2.89028        0.87574       -0.52835
H          2.72352       -2.13363        0.09294
H          2.97844       -0.71953       -2.35908
