18

C          1.04402        0.05991        0.03392
N          2.49490        0.06338        0.00413
C          3.15967        0.21292       -1.27849
C          3.23027       -0.07136        1.15982
N          4.51843       -0.07930        1.22789
C          5.06315       -0.22535        2.48062
C          6.56993       -0.22552        2.48203
O          4.43467       -0.34758        3.52907
H          0.60515        0.17608       -0.96249
H          0.67589        0.88192        0.65667
H          0.67589       -0.88332        0.45086
H          2.45006        0.30944       -2.10641
H          3.78996       -0.65886       -1.48350
H          3.78996        1.10847       -1.27745
H          2.58455       -0.17551        2.05319
H          6.96538       -0.10743        1.46919
H          6.92878       -1.17427        2.88962
H          6.92878        0.60401        3.09695
