18

C          0.97758       -0.16226        0.17967
C          2.42557       -0.46948       -0.20635
C          3.05555        0.76980       -0.87318
O          4.43324        0.51149       -1.17687
N          4.54724        0.07578       -2.50852
C          4.20636       -1.17287       -2.62382
C          3.76277       -2.07052       -1.49115
N          2.41600       -1.69783       -1.03866
H          0.91985        0.74465        0.79146
H          0.54151       -0.98225        0.76164
H          0.35398       -0.00849       -0.70781
H          2.99083       -0.69287        0.70857
H          3.03859        1.61424       -0.17441
H          2.50429        1.07900       -1.77035
H          4.21288       -1.61832       -3.63230
H          3.73152       -3.09189       -1.88696
H          4.49390       -2.05520       -0.67640
H          2.04318       -2.45951       -0.47060
