14

C          1.26436        0.58887        0.51562
N          2.47912        0.01102       -0.02319
C          3.16105        0.52717       -1.08013
C          3.19697        1.75948       -1.57990
O          4.00976        1.92565       -2.69815
C          4.49530        0.63992       -2.85794
O          5.25933        0.28656       -3.74201
N          3.98460       -0.17341       -1.87867
H          0.95864        0.03677        1.40905
H          0.45345        0.52742       -0.21756
H          1.41261        1.63566        0.79818
H          2.49361       -1.00547       -0.00179
H          2.69471        2.65086       -1.24814
H          4.21530       -1.14852       -1.80346
