15

C          1.17299       -0.23328        0.20922
C          2.66012       -0.15144       -0.05699
N          3.21982       -1.21271       -0.54078
O          4.54774       -1.03875       -0.96748
C          5.42705       -0.71019        0.10297
O          5.68140        0.68744        0.18465
C          4.58070        1.47325        0.32044
C          3.27558        1.17830        0.24090
H          0.76943       -1.18591       -0.14648
H          0.66326        0.57313       -0.32631
H          0.97368       -0.13819        1.28147
H          6.38564       -1.19560       -0.10353
H          5.07507       -1.08861        1.07233
H          4.90154        2.49258        0.51660
H          2.55747        1.97188        0.44073
