17

C          1.01737       -0.08878        0.01041
C          2.53833       -0.14113        0.08196
N          3.06608        1.07381        0.73506
C          2.96229       -1.39545        0.85990
O          3.08021       -1.44696        2.08053
O          3.11697       -2.44097       -0.02172
C          3.49592       -3.66371        0.53344
C          3.66969       -4.74846       -0.22448
H          0.67558        0.79662       -0.53645
H          0.56997       -0.06557        1.01099
H          0.62257       -0.97311       -0.50188
H          2.96649       -0.18556       -0.92668
H          2.79431        1.05522        1.72150
H          2.63349        1.90217        0.33111
H          3.64002       -3.66246        1.60564
H          3.52127       -4.71536       -1.29838
H          3.96958       -5.69155        0.22006
