18

C          1.01278       -0.10214       -0.03174
C          2.50464       -0.06232       -0.00986
N          3.23375       -1.13619       -0.00047
N          4.51690       -0.70993        0.09983
C          4.65388        0.68620       -0.30566
C          3.27698        1.22582        0.06430
C          2.79254        2.30837       -0.87676
O          3.68020        3.41959       -0.86206
H          0.66055       -1.13679       -0.06316
H          0.63982        0.42414       -0.91397
H          0.62486        0.38147        0.86843
H          5.17411       -1.33093       -0.37528
H          4.84229        0.74503       -1.38401
H          5.46254        1.19275        0.22875
H          3.27247        1.57625        1.10398
H          1.79573        2.66168       -0.59243
H          2.72412        1.94125       -1.90617
H          3.63513        3.82795        0.02025
