18

C          0.98713       -0.02792        0.08962
C          2.50974       -0.04931        0.15566
O          3.02349        0.04550       -1.18094
C          3.07973        1.09771        1.02633
N          4.24145        0.51366        1.68229
C          4.26268       -0.83870        1.51306
N          5.19784       -1.62307        1.91193
C          3.03939       -1.34114        0.79743
H          0.63023        0.89952       -0.37146
H          0.53738       -0.11264        1.08457
H          0.61509       -0.85169       -0.52944
H          2.62257        0.81870       -1.61302
H          2.36947        1.41317        1.79797
H          3.37351        1.96543        0.42761
H          5.12762        0.98415        1.53544
H          5.90470       -1.06819        2.40102
H          2.35636       -1.75681        1.54467
H          3.31266       -2.10598        0.06482
