20

C          2.56600       -1.34298       -0.40504
C          2.34666        0.09292        0.04502
C          3.08099        0.44588        1.33781
C          4.58988        0.51841        1.15489
N          5.40961       -0.53535        1.46635
C          5.10627       -1.81767        2.02675
N          5.06541        1.63671        0.67779
O          6.46636        1.57637        0.56281
H          1.95977       -1.55622       -1.29137
H          2.27527       -2.04997        0.37814
H          3.61241       -1.52332       -0.66754
H          1.27206        0.24410        0.20381
H          2.64795        0.77116       -0.76182
H          2.81652       -0.24290        2.14400
H          2.74572        1.44021        1.66123
H          6.38991       -0.31814        1.30894
H          4.03794       -1.99595        2.15941
H          5.59206       -1.92147        3.00147
H          5.49668       -2.60199        1.37115
H          6.67735        2.46246        0.21760
