13

C          1.00205        0.87292       -0.63800
O         -0.19115        0.72332        0.11600
C          0.69113       -0.42039        0.09474
C          1.53069       -0.80608        1.29619
C          2.01033        0.02234        2.28260
C          2.70168       -0.84204        3.14911
N          2.66143       -2.10920        2.73183
O          1.91341       -2.08554        1.56503
H          1.76258        1.53985       -0.25300
H          0.91831        0.87545       -1.71812
H          0.38448       -1.26320       -0.51586
H          1.86893        1.08837        2.37092
H          3.22967       -0.61000        4.06315
