21

C          2.91978        1.11514       -0.41052
C          2.77311       -0.35729       -0.02456
O          1.66464       -0.90571       -0.74969
C          4.04990       -1.19074       -0.29494
C          5.25276       -0.77287        0.57150
N          5.02526       -0.80085        2.01373
C          3.78643       -2.70181       -0.13168
O          2.94968       -3.18528       -1.17911
H          2.01257        1.66071       -0.13310
H          3.02520        1.22761       -1.49365
H          3.76753        1.59543        0.07722
H          2.50402       -0.41739        1.03326
H          1.70230       -0.55708       -1.65854
H          4.32143       -1.03634       -1.34839
H          6.09966       -1.42910        0.33897
H          5.57832        0.23765        0.29785
H          5.80172       -1.27587        2.47723
H          4.18861       -1.32271        2.26298
H          3.30509       -2.93131        0.82410
H          4.72104       -3.26845       -0.18615
H          2.11993       -2.66689       -1.10637
