19

C          0.63283        0.13589       -0.00320
C          2.11351        0.22954       -0.02769
C          2.87668        1.33472       -0.04216
C          4.26620        0.95326       -0.08275
C          4.37153       -0.38719       -0.09051
C          5.56588       -1.27642       -0.13518
N          6.83113       -0.56212       -0.21734
C          2.98912       -0.99272       -0.04732
H          0.16809        1.12710        0.00986
H          0.29804       -0.40638        0.88641
H          0.27124       -0.39421       -0.88976
H          2.52971        2.35683       -0.03358
H          5.07458        1.66890       -0.10815
H          5.57963       -1.90796        0.75978
H          5.48888       -1.94407       -1.00020
H          6.88544        0.10369        0.55098
H          6.84656       -0.01797       -1.07773
H          2.84945       -1.59380        0.85673
H          2.79695       -1.60162       -0.93634
