17

C          1.41831        0.19296        0.41737
N          2.88044       -0.06785        0.23200
C          3.07458       -0.24770       -1.17884
C          3.66424        0.98784       -0.57355
C          5.14326        1.02239       -0.86498
C          3.13799        2.29675       -0.14634
O          3.26448        2.46680        1.22205
O          2.70183        3.14071       -0.90503
H          1.03273       -0.46419        1.20141
H          0.81452       -0.01468       -0.47831
H          1.17192        1.21545        0.72273
H          2.28781       -0.15138       -1.91233
H          3.71334       -1.10846       -1.37898
H          5.36726        1.95100       -1.41103
H          5.47029        0.21613       -1.53059
H          5.74780        1.01021        0.04245
H          3.52406        1.58936        1.60697
