17

C          1.01446        0.11104        0.25840
C          2.52123       -0.00392        0.19254
N          3.19149        0.53127        1.27777
C          3.13139       -0.60844       -0.85361
C          2.44783       -1.29009       -2.00132
O          2.83942       -0.69415       -3.23063
C          4.62488       -0.69435       -0.91609
O          5.37977        0.02114       -0.26544
H          0.69580        0.76596        1.07725
H          0.56247       -0.87154        0.42875
H          0.61170        0.54176       -0.66436
H          2.75891        1.35008        1.69651
H          4.19434        0.67742        1.09401
H          1.35654       -1.26109       -1.94322
H          2.73647       -2.34675       -2.03213
H          2.41551        0.18133       -3.27399
H          5.01885       -1.45441       -1.61291
