17

C          3.41292       -1.28509       -0.06109
C          2.64713        0.01957        0.10402
C          3.11395        1.07733       -0.89364
O          2.91459        0.61765       -2.25892
C          2.61586        2.52654       -0.58541
N          4.00616        2.97370       -0.70018
C          4.52074        1.71380       -0.60400
O          5.63829        1.36676       -0.30823
H          3.07347       -2.01905        0.67653
H          4.48795       -1.13674        0.07902
H          3.26050       -1.71300       -1.05705
H          2.77439        0.37683        1.13290
H          1.57654       -0.17326       -0.03471
H          1.95218        0.54131       -2.36521
H          2.20217        2.69961        0.41292
H          1.96615        2.97259       -1.34257
H          4.48929        3.71713       -0.21435
