12

C          2.61175        1.42459        0.05621
C          2.33409        0.11568        0.08304
C          3.12276       -0.80287        0.93016
N          4.10175       -0.51023        1.72047
N          4.53453       -1.67700        2.25127
O          3.64173       -2.77153        1.86784
C          2.77267       -2.25968        0.96132
O          1.88062       -2.80785        0.35094
H          2.03573        2.10229       -0.56564
H          3.41659        1.85280        0.64838
H          1.53169       -0.30902       -0.51059
H          4.47919       -1.66270        3.27513
