19

C          1.01878       -0.02700        0.26413
C          2.54931        0.05464        0.13398
N          3.10439        0.00809        1.49186
C          2.93400        1.36786       -0.56961
C          3.87864        1.27084       -1.76856
O          4.09367        0.01293       -2.39486
C          3.73557       -1.10780       -1.71775
C          3.04742       -1.15700       -0.58051
H          0.61770        0.83545        0.81023
H          0.69991       -0.93249        0.79679
H          0.53944       -0.04505       -0.72265
H          2.79572        0.82188        2.02024
H          4.11992        0.06758        1.44140
H          3.37746        2.07636        0.14443
H          2.02659        1.89100       -0.90391
H          4.86089        1.66979       -1.49153
H          3.50160        1.93614       -2.55414
H          4.07007       -1.99727       -2.23857
H          2.81318       -2.12549       -0.14933
