19

C          1.13873        0.07396       -0.10559
N          2.59711        0.02066       -0.09529
C          3.24890       -0.70530       -1.18877
C          2.55748       -1.44909       -2.28317
O          1.77605       -2.51439       -1.75522
C          3.20398        0.81111       -1.16340
C          4.41987        1.54836       -0.82164
C          5.36604        1.94153       -1.68332
H          0.74411       -0.67194        0.58995
H          0.67001       -0.09027       -1.08026
H          0.80997        1.05748        0.25039
H          4.17218       -1.19867       -0.90242
H          3.29930       -1.87891       -2.96500
H          1.90232       -0.80675       -2.88035
H          2.32453       -2.97256       -1.09581
H          2.53197        1.32661       -1.84403
H          4.55109        1.80154        0.23021
H          5.29130        1.72349       -2.74393
H          6.23448        2.49412       -1.33813
