15

C          3.30099        1.37508        0.33691
C          2.59491        0.10354       -0.07338
O          1.45653       -0.13248        0.34532
C          3.27581       -0.83742       -1.06162
C          2.90499       -0.44012       -2.47188
C          2.25207       -1.23324       -3.33405
C          4.73501       -0.83940       -0.89054
N          5.88654       -0.82231       -0.74567
H          2.60677        2.01384        0.89136
H          3.63778        1.92235       -0.54682
H          4.14641        1.13973        0.98788
H          2.90609       -1.84704       -0.84022
H          3.19015        0.55764       -2.80446
H          1.93748       -2.23946       -3.07010
H          2.01583       -0.89009       -4.33813
