16

C          1.00005       -0.02779        0.09753
C          2.52777       -0.01055        0.16599
C          3.06207        1.38614       -0.15453
C          3.01654       -0.48712        1.49312
N          3.79588       -1.57001        1.62560
O          4.00407       -1.64357        3.00560
C          3.32832       -0.59914        3.54835
N          2.70382        0.14600        2.67143
H          0.65046        0.29171       -0.88998
H          0.55569        0.63904        0.84533
H          0.61282       -1.03625        0.28122
H          2.90066       -0.69243       -0.61025
H          2.71073        2.12816        0.57149
H          2.73766        1.70774       -1.14998
H          4.15768        1.39882       -0.13789
H          3.37405       -0.49330        4.62130
