20

C          1.07872        0.00830        0.08410
C          2.59511       -0.02777        0.02658
C          3.09476       -0.74847       -1.22066
O          4.52256       -0.72937       -1.21190
C          5.05467       -1.40763       -2.34620
C          6.58919       -1.42759       -2.31155
N          7.23290       -0.91244       -1.23131
N          7.28063       -1.93771       -3.27898
H          0.74349        0.52913        0.98758
H          0.66235       -1.00353        0.10190
H          0.66653        0.53415       -0.78287
H          2.99177       -0.52258        0.92103
H          2.99365        0.99327        0.04519
H          2.73096       -0.24008       -2.12052
H          2.74051       -1.78607       -1.22614
H          4.74064       -0.90139       -3.26578
H          4.70690       -2.44705       -2.36403
H          6.69906       -0.32321       -0.59917
H          8.22499       -0.74242       -1.32693
H          6.66120       -2.30694       -4.00864
