19

C          1.05865        1.20095       -0.53950
N          2.51631        1.19893       -0.56230
C          3.01881        0.06977       -1.33881
C          4.51844        0.10427       -1.36038
C          5.25981        0.16951       -2.47957
C          6.75887        0.17660       -2.49085
C          7.24658        1.45271       -3.13312
O          7.93813        1.47879       -4.14719
H          0.70420        2.06179        0.03568
H          0.66423        0.29512       -0.06651
H          0.64497        1.28679       -1.54946
H          2.85693        1.12575        0.39467
H          2.62243        0.10676       -2.36038
H          2.69934       -0.87765       -0.88854
H          5.01233        0.04781       -0.39295
H          4.76596        0.21327       -3.44999
H          7.12726       -0.67855       -3.06664
H          7.18231        0.12002       -1.48299
H          6.97292        2.38664       -2.61197
