15

C          0.98776        0.10051        0.04178
C          2.50842        0.04325       -0.02218
C          3.01380       -1.15464       -0.86054
N          3.31096       -0.62540       -2.23165
C          3.30609        0.66506       -2.04443
N          3.02756        1.15345       -0.79694
C          3.54635        1.49803       -3.20259
N          3.71730        2.21448       -4.10153
H          0.59455       -0.75151        0.60581
H          0.53772        0.08127       -0.95721
H          0.65428        1.01957        0.53528
H          2.93030        0.02897        0.98766
H          2.28051       -1.96558       -0.91641
H          3.94404       -1.55497       -0.44119
H          2.58247        2.06140       -0.72450
