16

N          3.02312       -0.07667        1.18171
C          2.38900        0.04768       -0.01834
N          1.09977        0.09946       -0.08163
C          3.16506        0.09423       -1.32619
C          4.67839        0.07935       -1.15698
O          5.07011       -1.11683       -0.46992
C          5.37856        0.12398       -2.45082
C          5.97109        0.15076       -3.49582
H          2.47571       -0.45050        1.94628
H          3.95123       -0.50285        1.13876
H          0.70748        0.07027        0.86124
H          2.85181        0.99751       -1.86616
H          2.83592       -0.76888       -1.92019
H          4.99907        0.92479       -0.53692
H          4.91163       -1.85154       -1.09259
H          6.51042        0.17272       -4.41470
