14

O          1.20016       -0.77282        0.14314
C          2.38401       -0.47993        0.18173
N          2.92511        0.83674        0.18639
N          4.36825        0.79592       -0.08206
C          4.61254       -0.47890       -0.04095
C          3.58650       -1.31017        0.15846
C          4.36638       -2.55109        0.02544
C          5.62258       -1.58907        0.06025
H          2.37818        1.57706       -0.23807
H          4.91248        1.46250        0.47074
H          4.24568       -3.10234       -0.91372
H          4.32088       -3.25868        0.85897
H          6.30665       -1.71243       -0.78506
H          6.19972       -1.63138        0.99160
