13

N          1.06161        0.27055        0.08452
C          2.27460       -0.23091       -0.27297
S          2.31600       -1.58668       -1.23949
N          3.33553        0.48513        0.23749
C          4.67246        0.21155        0.04246
C          5.69948        0.91242        0.54211
C          5.58960        2.06332        1.36258
N          5.50816        3.00566        2.03437
H          0.23264       -0.20495       -0.25446
H          0.92856        1.08504        0.66517
H          3.09437        1.28786        0.80976
H          4.89997       -0.65489       -0.57522
H          6.70835        0.58625        0.30959
