16

C          2.39346       -0.60197       -1.30609
C          2.48750       -0.01961        0.09561
C          3.00528        1.38801        0.09955
C          2.21767        2.52220        0.02566
S          3.13366        3.96568        0.07019
C          4.59728        3.10321        0.18852
O          5.75136        3.75325        0.26796
C          4.39169        1.74420        0.18916
H          2.01655       -1.62884       -1.26513
H          3.37344       -0.61858       -1.79500
H          1.71464       -0.01524       -1.93427
H          3.14336       -0.65113        0.70683
H          1.49779       -0.04872        0.56736
H          1.14008        2.57422       -0.05009
H          5.50589        4.69443        0.24806
H          5.20607        1.03332        0.25688
