15

C          2.21959       -0.04456        0.00400
C          1.35882        1.26609       -0.00492
C         -0.01953        0.72077       -0.00428
C         -1.29064        1.23018        0.00885
S         -2.45430       -0.04933        0.01182
C         -1.23071       -1.27006       -0.00512
C         -0.00355       -0.68203       -0.02125
N          1.25228       -1.15440       -0.04571
H          2.82478       -0.10529        0.91460
H          2.88438       -0.07970       -0.86529
H          1.56182        1.85908       -0.90118
H          1.56211        1.87074        0.88439
H         -1.61126        2.26255        0.01780
H         -1.48964       -2.31824       -0.00938
H          1.54956       -2.11755        0.04900
