18

O          1.10287        0.06307       -0.01936
C          2.51897        0.01529        0.04761
C          3.06659        1.13357        0.92180
C          4.43528        0.60808        1.33075
N          4.24298       -0.83013        1.43860
C          3.02323       -1.24986        0.75756
C          5.08094       -1.64708        2.13096
N          4.96750       -2.91103        2.32606
H          0.85151        0.92766       -0.38774
H          2.93038        0.07506       -0.96694
H          2.42745        1.28136        1.80160
H          3.12173        2.09112        0.39516
H          4.76160        1.05520        2.27529
H          5.18327        0.82330        0.55929
H          2.28715       -1.62399        1.47741
H          3.22361       -2.04134        0.02629
H          5.94814       -1.11811        2.56342
H          4.11622       -3.25014        1.87643
