19

N          0.93732        0.11463        0.03548
C          2.33480       -0.31654        0.00050
C          2.81901       -1.15597       -1.14441
C          3.27312        0.27527       -1.02579
C          4.67539        0.52066       -0.66807
C          5.71318        0.66747       -1.50952
C          5.65494        0.62953       -2.99997
O          6.16665        1.85938       -3.49188
H          0.40881       -0.43126        0.71607
H          0.47566       -0.04126       -0.85979
H          2.75555       -0.52553        0.98243
H          2.13663       -1.39849       -1.95121
H          3.52293       -1.94998       -0.91904
H          2.84412        1.00411       -1.70790
H          4.89241        0.59064        0.39695
H          6.70260        0.83076       -1.08664
H          4.64317        0.49522       -3.39169
H          6.28154       -0.18111       -3.38261
H          5.64920        2.56426       -3.06603
