14

O          1.53504        0.04221        0.58022
N          2.65950        0.19560       -0.26731
C          3.29694        1.48433       -0.07286
C          4.51521        1.58356       -0.93104
C          5.14737        0.48088       -1.35002
N          4.64197       -0.74645       -1.03303
C          3.40940       -0.95806       -0.44674
O          3.01995       -2.09587       -0.19318
H          0.85775       -0.23315       -0.06478
H          3.56902        1.59450        0.98305
H          2.56982        2.25767       -0.33537
H          4.90476        2.56912       -1.16271
H          6.07012        0.50774       -1.92035
H          5.15602       -1.59011       -1.26358
