19

O          1.06521       -0.00715        0.04033
C          2.48509       -0.02954        0.07364
C          3.01688        0.73595       -1.12955
C          4.54057        0.75053       -1.15222
C          5.08314        1.51579       -2.35237
O          6.51017        1.47901       -2.29144
N          7.02172        2.18291       -3.39142
C          8.30929        2.15074       -3.33531
H          0.75394       -0.50111        0.81821
H          2.81776       -1.07221        0.05163
H          2.81897        0.43142        1.00873
H          2.62657        1.76107       -1.11010
H          2.62672        0.28388       -2.04992
H          4.92931       -0.27538       -1.17120
H          4.92921        1.20075       -0.23002
H          4.74589        2.55848       -2.32721
H          4.74807        1.05156       -3.28714
H          8.90608        2.64978       -4.11403
H          8.86306        1.63838       -2.53050
