18

N          1.10931       -0.15439       -0.65042
C          2.43273       -0.11046       -0.02250
C          3.18615       -1.45092       -0.04367
O          2.43738       -2.47335        0.66921
C          2.68841       -3.61398       -0.06659
C          3.28903       -3.44146       -1.23935
C          3.50483       -1.99121       -1.45935
N          4.86688       -1.73225       -1.92136
H          0.61848        0.72066       -0.47039
H          0.56106       -0.88714       -0.19350
H          2.29355        0.19622        1.02066
H          3.03395        0.65779       -0.51997
H          4.11789       -1.31296        0.52454
H          2.33662       -4.53003        0.37766
H          3.52100       -4.21824       -1.95003
H          2.79667       -1.63189       -2.21359
H          5.52930       -2.06792       -1.22372
H          5.00937       -0.72631       -1.98969
