16

O          0.85147       -0.03921        0.08889
C          2.28525       -0.04846       -0.14528
C          3.17911        0.95244        0.72279
N          2.83213       -0.03185        1.87240
C          3.16532       -1.04530        0.74072
C          4.67036       -0.83738        0.53195
N          5.26136       -0.07105       -0.54545
C          4.68073        0.71990        0.51824
H          0.52998        0.74500       -0.38833
H          2.49198       -0.06447       -1.21930
H          2.82798        1.97557        0.86259
H          1.82912       -0.03691        2.08812
H          2.79951       -2.06040        0.90151
H          5.28344       -1.32837        1.27625
H          4.69074       -0.08213       -1.38895
H          5.30061        1.21396        1.25522
