14

C          0.97422        0.20830        0.08462
C          2.49325        0.13753        0.03807
O          2.96291       -0.48937        1.23447
C          2.97923       -0.67476       -1.12336
N          2.68431       -1.94563       -1.32236
N          3.27796       -2.44707       -2.46338
C          4.00698       -1.53956       -3.07539
S          4.01784       -0.00239       -2.31856
H          0.64771        0.78407        0.95746
H          0.53047       -0.78898        0.18514
H          0.56690        0.67704       -0.81695
H          2.90488        1.15259        0.01824
H          2.73225       -1.43496        1.16168
H          4.55504       -1.74973       -3.98333
