12

O          1.00651        0.00224       -0.08798
C          2.34988        0.06835       -0.08042
C          3.04574        1.25255       -0.07696
S          4.73820        0.97914       -0.06713
C          4.52639       -0.71939       -0.06704
C          3.19306       -1.07047       -0.07509
C          5.61546       -1.64005       -0.05920
C          6.53755       -2.40915       -0.05200
H          0.61570        0.89282       -0.08993
H          2.66526        2.26363       -0.07961
H          2.83765       -2.09322       -0.07668
H          7.36037       -3.08493       -0.04526
