15

O          2.63420       -1.40822       -0.44331
C          2.36792       -0.08945        0.03111
C          2.97448        0.11490        1.41622
C          4.46112        0.16861        1.39976
C          5.36284       -0.81616        1.06403
O          6.61899       -0.31584        1.22009
C          6.40807        0.95704        1.65142
N          5.14549        1.30528        1.77340
H          2.29621       -1.45435       -1.35503
H          1.28120        0.02596        0.08395
H          2.76488        0.63248       -0.69182
H          2.66242       -0.69617        2.08295
H          2.58993        1.05208        1.83623
H          5.28169       -1.83702        0.71856
H          7.28742        1.55126        1.85090
