17

O          1.04129       -0.10761       -0.04058
C          2.48608       -0.05760       -0.11168
C          3.14656        0.99078       -1.08825
C          2.72724       -0.00983       -2.21690
C          3.16620       -1.01903       -1.12909
O          2.77511       -2.38966       -1.20764
C          4.64611       -0.72338       -0.96487
N          4.60906        0.75495       -0.92970
H          0.80074        0.65440        0.51550
H          2.90183       -0.07377        0.90325
H          2.79009        2.01904       -1.11062
H          3.31664        0.01942       -3.13966
H          1.66590       -0.01837       -2.48918
H          1.80672       -2.36114       -1.08810
H          5.23885       -1.08804       -1.81044
H          5.05401       -1.12483       -0.03208
H          5.17021        1.11944       -1.70057
