19

C          1.19140        0.11868        0.09689
C          2.68597        0.21687        0.04264
C          3.47910       -0.87257        0.05740
C          4.98059       -0.81259       -0.00871
N          5.51022       -1.22681        1.28322
C          5.50119        0.55613       -0.34485
C          4.72469        1.65241       -0.35548
C          3.25604        1.61639       -0.03246
H          0.84626       -0.92127        0.08491
H          0.74557        0.62382       -0.76682
H          0.81245        0.59272        1.00683
H          3.04649       -1.86627        0.12208
H          5.32039       -1.51209       -0.78088
H          5.09975       -0.61830        1.99148
H          6.50952       -1.04148        1.30803
H          6.55313        0.64140       -0.60087
H          5.15588        2.61703       -0.60502
H          2.72386        2.18205       -0.80561
H          3.09246        2.12609        0.92497
