12

C          1.02058        0.13609        0.03704
S          2.78869        0.05787        0.05299
O          3.31355       -0.08418        1.38987
O          3.31351       -0.59893       -1.11989
C          3.35175        1.70837       -0.28545
C          3.74265        2.82009       -0.51348
C          4.25566        4.23417       -0.80336
C          4.66659        5.33841       -1.02974
H          0.63871       -0.86623        0.24260
H          0.68838        0.46574       -0.94877
H          0.68838        0.82715        0.81349
H          5.03922        6.31650       -1.23017
