13

C         -1.35935        1.27454        0.00543
C         -2.16268       -0.03793        0.00328
C         -1.32753       -1.10639       -0.00077
C          0.01910       -0.66046       -0.00170
C          0.00672        0.70683        0.00184
S          1.56309        1.30182        0.00094
N          2.29124       -0.22076       -0.00409
C          1.32912       -1.15652       -0.00500
H         -1.56845        1.85577        0.90737
H         -1.57125        1.86043       -0.89283
H         -3.24153       -0.08236        0.00484
H         -1.63039       -2.14425       -0.00298
H          1.64118       -2.19206       -0.00813
