12

O          0.99277        0.02643       -0.07872
N          2.36941        0.09208       -0.05608
C          3.13345        1.21569       -0.05117
C          4.43193        0.76233       -0.03778
C          4.32703       -0.64213       -0.03515
N          3.05398       -1.05071       -0.04468
C          5.60544        1.56333       -0.02972
C          6.60290        2.23174       -0.02282
H          0.77187        0.96582       -0.02480
H          2.71091        2.20848       -0.05905
H          5.11796       -1.38127       -0.02706
H          7.49137        2.81941       -0.01752
