12

O          2.96843       -3.06032        0.24155
C          2.40571       -1.98602        0.41818
O          2.95650       -0.80433        0.74363
C          4.26861       -0.73381        0.88950
N          4.91683        0.40922        0.92279
C          6.24299        0.07488        1.04972
C          6.39820       -1.28789        1.13493
N          5.13021       -1.79236        1.04136
H          1.31492       -1.85715        0.33270
H          7.01211        0.83499        1.06964
H          7.26707       -1.92133        1.23668
H          4.85166       -2.76623        1.03320
