19

C          1.08428        0.01500        0.04789
C          2.59820        0.03237        0.03015
C          3.21731        1.25301        0.74027
N          4.37705        0.66779        1.42484
C          5.61919        1.40552        1.43319
C          4.31722       -0.70341        1.41112
N          5.18990       -1.54835        1.80672
N          3.15402       -1.06438        0.80333
H          0.68089        0.89672       -0.46075
H          0.69121       -0.00157        1.07029
H          0.70501       -0.87608       -0.46372
H          2.97016       -0.02543       -1.00055
H          2.54073        1.67928        1.48765
H          3.49023        2.03375        0.02227
H          5.44197        2.48310        1.35106
H          6.25287        1.10016        0.59533
H          6.16303        1.23204        2.36676
H          5.96749       -1.04081        2.23010
H          3.15402       -2.00196        0.42484
