17

O          0.90711        0.04034        0.08734
C          2.32995        0.09938        0.29333
C          3.16359       -0.63991       -0.72037
N          4.44833       -1.30616       -0.38737
C          5.33262       -0.54262        0.50628
C          5.36863        0.93502        0.23406
C          4.33632        1.56793       -0.34743
C          3.10742        0.87049       -0.74786
H          0.53888       -0.75604        0.50799
H          2.67456        0.13234        1.32098
H          2.60675       -1.15699       -1.49921
H          4.96101       -1.45217       -1.25795
H          6.34587       -0.94831        0.40664
H          5.03312       -0.70763        1.54722
H          6.24397        1.49134        0.55352
H          4.38594        2.63990       -0.51748
H          2.54583        1.33796       -1.54926
