16

N          3.59517        0.56652        0.08672
C          2.24797        0.00775        0.15157
C          2.17532       -1.49175        0.18425
C          3.13846       -2.42730        0.13589
N          4.48910       -2.21492        0.19385
O          4.93005       -1.40784        1.26950
C          5.44765       -3.02571       -0.36178
O          5.26088       -3.89841       -1.20561
H          3.51473        1.58183        0.00138
H          4.01031        0.26690       -0.80068
H          1.70100        0.34594       -0.73741
H          1.72736        0.41608        1.02381
H          1.15265       -1.86353        0.13954
H          2.85984       -3.46698       -0.03986
H          4.53950       -0.53969        1.02728
H          6.45788       -2.77756       -0.00236
