21

C          0.94281        0.13134        0.08370
C          2.42909        0.09198       -0.01202
C          3.16064       -0.71887       -1.05794
C          2.47953       -1.51509       -2.11699
N          3.08542        0.74128       -1.14929
C          4.37551        1.34585       -0.76937
C          5.61410        1.07292       -1.58558
C          4.94097        2.40688       -1.68100
H          0.59932       -0.59109        0.83081
H          0.43996       -0.09680       -0.86057
H          0.61450        1.12659        0.40357
H          2.88481        0.18285        0.96747
H          4.09586       -1.18015       -0.75450
H          1.62426       -0.99543       -2.55979
H          2.13058       -2.46569       -1.70603
H          3.18350       -1.73574       -2.92626
H          4.51984        1.54047        0.29194
H          5.53722        0.40966       -2.43848
H          6.55821        1.01208       -1.05781
H          4.40254        2.63863       -2.59278
H          5.42962        3.25871       -1.22445
