19

O          0.94683       -0.36038        0.40747
N          2.32453       -0.19427        0.58667
C          2.94964       -1.04226       -0.16393
C          4.45306       -1.08831       -0.17613
C          4.96998       -2.47057        0.20343
C          6.37302       -2.48136       -0.37817
C          6.22830       -1.76871       -1.71617
C          5.01212       -0.85116       -1.58003
H          0.57652        0.31727        1.00402
H          2.40856       -1.75224       -0.81542
H          4.85293       -0.33612        0.51503
H          4.36181       -3.26448       -0.24690
H          4.97306       -2.62677        1.28665
H          6.77207       -3.49359       -0.48797
H          7.05314       -1.91868        0.27270
H          6.05606       -2.49605       -2.51791
H          7.13397       -1.20865       -1.97030
H          4.27961       -1.08234       -2.36268
H          5.29429        0.19941       -1.71114
