15

O          1.10045       -0.44830        0.26642
C          2.20342       -0.05949       -0.10472
C          3.04135       -0.85485       -1.03275
N          2.88305       -2.31062       -0.93391
C          2.40688       -1.64611       -2.15500
C          3.12730       -1.92205       -3.46408
C          2.72023       -1.30737       -4.78119
O          3.81664       -0.78909       -4.02437
H          2.62629        0.90104        0.23184
H          4.05459       -0.50016       -1.18043
H          2.08557       -2.52245       -0.32283
H          1.32214       -1.59343       -2.23831
H          3.63717       -2.88026       -3.52521
H          1.81498       -0.71535       -4.82248
H          2.94930       -1.84919       -5.69008
