17

C          0.87319        0.16424       -0.02960
C          2.36179        0.10385       -0.03425
C          3.26449        1.14589        0.00173
C          4.63362        0.70791       -0.01171
C          5.82228        1.61456        0.04672
N          5.81482        2.47480       -1.12766
C          4.69540       -0.67224       -0.06008
S          3.15377       -1.40936       -0.08634
H          0.52303        1.20172       -0.02719
H          0.46852       -0.32773        0.86123
H          0.46039       -0.32617       -0.91737
H          2.97024        2.18918        0.03105
H          6.75229        1.03577        0.07334
H          5.78075        2.22425        0.95538
H          5.84562        1.89229       -1.96295
H          6.66402        3.03455       -1.13457
H          5.58040       -1.29400       -0.07798
