21

C          0.96898        0.16048        0.39399
C          2.45059       -0.07722        0.08367
C          2.64568       -1.35138       -0.74560
N          2.39783       -0.96600       -2.15194
C          3.59452       -0.52797       -2.86164
C          2.68830        0.49250       -2.21720
C          1.84347        1.36061       -3.09448
C          3.00817        1.01061       -0.83819
H          0.59508       -0.61481        1.07075
H          0.34673        0.13978       -0.50746
H          0.82330        1.13104        0.87954
H          3.00751       -0.11553        1.02409
H          1.95291       -2.14241       -0.44069
H          3.66184       -1.74589       -0.61193
H          3.55819       -0.65128       -3.93851
H          4.56483       -0.73301       -2.42710
H          1.52736        0.84523       -4.00742
H          2.40864        2.25105       -3.38910
H          0.94362        1.68989       -2.56501
H          2.56998        1.99342       -0.63660
H          4.09534        1.09942       -0.71643
