17

C          1.33882       -0.17445       -0.00870
O          2.74365       -0.02527        0.12848
C          3.27197        0.85463        1.06828
C          2.37131        1.71919        1.92760
C          2.06118        1.03775        3.25042
N          1.80391        0.47244        4.34781
C          4.61390        0.91040        1.10320
C          5.49067        1.74164        1.98231
H          1.16031       -0.94306       -0.76763
H          0.88001        0.75288       -0.36626
H          0.88202       -0.51000        0.92559
H          1.43502        1.96308        1.41740
H          2.84127        2.68713        2.13460
H          5.15973        0.25670        0.42083
H          4.93552        2.36047        2.68998
H          6.11064        2.39990        1.36618
H          6.15389        1.08953        2.55943
