22

C          0.97599       -0.04324       -0.07583
C          2.49153       -0.05682       -0.06098
C          3.16406        1.00364        0.84689
C          4.23617       -0.05177        1.17771
C          3.18733       -1.14066        0.82667
C          3.76027       -2.36774        0.12926
C          2.64901       -3.32039       -0.20027
C          2.33989       -3.71333       -1.44228
H          0.60595        0.83841       -0.60884
H          0.56185       -0.02398        0.93751
H          0.58444       -0.92979       -0.58392
H          2.88969       -0.03073       -1.08562
H          2.56747        1.30472        1.71631
H          3.52671        1.90098        0.33888
H          4.59208       -0.05468        2.21148
H          5.10217       -0.01823        0.50537
H          2.59398       -1.41259        1.71359
H          4.46761       -2.87653        0.79438
H          4.31631       -2.08045       -0.77118
H          2.08097       -3.72451        0.63552
H          2.88101       -3.34753       -2.30910
H          1.53088       -4.41651       -1.61619
