17

C          1.02193        0.24245        0.21210
O          2.43670        0.16847        0.04431
C          2.86260        0.32079       -1.24966
O          2.11989        0.49201       -2.20580
C          4.38944        0.30762       -1.25164
N          4.96262        0.35958       -2.61026
C          4.79516        1.63986       -3.29379
C          6.12204        1.24788       -2.70463
H          0.80837        0.21841        1.28503
H          0.53888       -0.61817       -0.25951
H          0.63008        1.18071       -0.19410
H          4.71107       -0.63789       -0.79972
H          4.73125        1.12982       -0.61043
H          4.20949        2.41288       -2.81273
H          4.67828        1.58097       -4.36987
H          6.46356        1.77866       -1.82369
H          6.90679        0.93184       -3.38077
