16

O          1.21411        0.50274       -2.29008
N          2.60542        0.53776       -2.08418
C          3.06760        0.86811       -0.82643
O          2.32975        1.14253        0.12090
C          4.63219        0.84576       -0.75518
C          5.31652        0.51497        0.58596
C          6.30469       -0.28709       -0.27097
N          5.24026       -0.42811       -1.29805
H          1.08432       -0.27361       -2.86158
H          3.23173        0.20731       -2.81207
H          5.05969        1.74015       -1.23192
H          4.71659       -0.09465        1.27042
H          5.73884        1.36253        1.13267
H          6.65223       -1.22904        0.16431
H          7.17447        0.28326       -0.61842
H          4.65586       -1.24815       -1.11679
