14

O          1.43811        0.20614        0.27303
C          2.72483       -0.12824        0.03857
O          3.34798        0.12092       -0.97091
C          3.28683       -0.95246        1.22374
N          2.54177       -1.92230        1.67591
N          4.51488       -0.54945        1.72954
C          4.81160       -0.84885        3.13741
C          5.46966       -1.62575        2.04824
H          1.17597       -0.01710        1.19137
H          1.71740       -2.05429        1.07532
H          4.01388       -1.31015        3.70306
H          5.37490       -0.06681        3.62637
H          5.12909       -2.63130        1.83663
H          6.48441       -1.37994        1.76886
