20

N          1.01210       -0.02905        0.05414
C          2.49016       -0.02642        0.04249
C          3.01681       -1.40474       -0.42695
N          4.47321       -1.55646       -0.51320
C          5.03238       -0.75521       -1.60656
C          5.34476        0.70674       -1.24810
O          4.37007        1.42739       -0.50224
C          3.01247        1.13995       -0.81545
H          0.68450       -0.76929        0.67416
H          0.65726       -0.25192       -0.87450
H          2.83044        0.12917        1.07440
H          2.56365       -1.67328       -1.39107
H          2.65998       -2.15939        0.28620
H          4.67708       -2.53942       -0.69536
H          4.37945       -0.79847       -2.48726
H          5.97468       -1.21943       -1.92352
H          5.53813        1.26515       -2.17158
H          6.26999        0.74365       -0.66212
H          2.87139        0.97702       -1.89068
H          2.45227        2.04713       -0.55882
