13

C          1.61290       -0.73060        0.86858
C          2.56200        0.02197       -0.03051
O          2.74057        1.22904        0.12655
C          3.24529       -0.71175       -1.09063
C          4.13022       -0.11897       -1.97582
S          4.72056       -1.29814       -3.06314
N          3.86240       -2.56323       -2.42083
C          3.14085       -2.10442       -1.40206
H          1.25049       -0.06438        1.65703
H          2.12692       -1.57189        1.34142
H          0.75622       -1.08616        0.28980
H          4.44353        0.91483       -2.02984
H          2.52636       -2.83112       -0.88525
