18

C          1.01403       -0.03997        0.01469
C          2.50708        0.10998        0.00114
C          3.17614        1.27967        0.01156
C          2.64143        2.67295        0.03838
C          4.65962        1.15784       -0.10186
N          5.36780        0.07493       -0.01753
N          4.67632       -1.04300        0.30363
C          3.26662       -1.19662       -0.04604
H          0.47929        0.91200        0.00927
H          0.69931       -0.58761        0.90848
H          0.68602       -0.60157       -0.86666
H          1.55077        2.71809        0.06253
H          2.97079        3.22423       -0.84853
H          3.00972        3.20084        0.92527
H          5.19350        2.10169       -0.30636
H          5.20512       -1.88222        0.06558
H          2.82545       -1.90541        0.66348
H          3.17604       -1.62672       -1.04976
