19

C          0.98942       -2.32404       -0.38713
O          2.40661       -2.24303       -0.42315
C          2.85482       -0.98607       -0.92357
C          4.38002       -0.96801       -0.91882
C          4.97981       -2.08779       -1.78682
C          6.50951       -2.09771       -1.77308
C          7.02407       -2.31997       -0.36020
N          7.45094       -2.50436        0.81190
H          0.71143       -3.30840       -0.00050
H          0.57423       -2.21354       -1.39355
H          0.57879       -1.55822        0.27752
H          2.47955       -0.18147       -0.28025
H          2.47620       -0.83448       -1.94075
H          4.71729       -1.08778        0.11694
H          4.73592        0.00698       -1.27107
H          4.63613       -1.96532       -2.81981
H          4.61406       -3.06278       -1.44104
H          6.90277       -1.14881       -2.15375
H          6.88247       -2.89993       -2.41886
