20

N          0.80281        1.97176        1.10603
C          2.24901        2.15285        1.19462
C          3.00369        0.80886        1.21799
N          4.46655        0.93982        1.17665
C          4.99446        1.46094        2.44869
C          6.53242        1.47695        2.39977
O          6.55500        2.89057        2.74335
C          5.14353        2.99093        2.42380
H          0.34887        2.88473        1.13656
H          0.46877        1.46340        1.92436
H          2.46487        2.72381        2.10290
H          2.58193        2.74928        0.33797
H          2.70920        0.22510        0.33675
H          2.69973        0.21426        2.08862
H          4.74388        1.45671        0.34271
H          4.58228        1.03219        3.36714
H          7.01294        1.31231        1.42921
H          7.02781        0.86996        3.16263
H          5.00067        3.49952        1.46408
H          4.58772        3.52019        3.20311
