16

C          0.85151       -0.20055       -0.06302
N          2.28562       -0.06645       -0.07572
S          3.03987        1.41983       -0.05767
C          4.61608        0.65762       -0.04875
C          5.86020        1.47870       -0.03927
C          4.58773       -0.68492       -0.05090
C          3.16903       -1.11747       -0.06303
N          2.83131       -2.36549       -0.06071
H          0.34023        0.76879       -0.06921
H          0.52584       -0.74108        0.83217
H          0.51334       -0.75768       -0.94327
H          5.64449        2.55234       -0.03276
H          6.46452        1.26935       -0.92816
H          6.45927        1.25760        0.85030
H          5.42518       -1.35912       -0.04550
H          3.66202       -2.96290       -0.05035
