16

O          1.39249        0.45111       -1.24041
C          2.12597        0.11093       -0.07088
C          1.91800        1.20463        0.91290
C          2.86184        1.91921        1.53923
N          4.20892        1.72142        1.39923
C          4.92927        2.78231        1.59882
N          6.30286        2.82226        1.60408
O          6.89496        1.73347        0.95377
H          1.61383       -0.21868       -1.90787
H          3.17662       -0.03457       -0.33768
H          1.72317       -0.82772        0.32312
H          0.87769        1.43802        1.12996
H          2.52934        2.68552        2.23944
H          4.49672        3.77679        1.81712
H          6.74903        3.71512        1.40559
H          6.21827        1.02722        1.04931
