13

O          0.96328        0.00179       -0.04344
C          2.39347        0.02870       -0.09204
C          2.88052        1.35888        0.44875
C          2.19668        2.51566        0.43062
C          2.90013       -1.09984        0.79118
C          3.33475       -2.06791        1.54880
C          2.86359       -0.13110       -1.49426
N          3.25112       -0.25402       -2.58639
H          0.72892        0.14060        0.88902
H          3.88629        1.36853        0.86405
H          1.20449        2.58856       -0.01044
H          2.63352        3.43116        0.81851
H          3.68958       -2.86513        2.16145
