14

C          1.28166       -0.54829       -0.51580
O          2.47303       -0.04709        0.07933
N          2.76540       -0.77847        1.23072
C          3.29443       -0.23927        2.36736
C          3.50702       -1.31449        3.18927
O          4.01787       -1.26632        4.42521
C          3.09854       -2.44360        2.46394
N          2.66592       -2.11718        1.24187
H          0.98129        0.14468       -1.30710
H          0.46250       -0.61326        0.20945
H          1.46419       -1.52261       -0.98107
H          3.46382        0.82109        2.46028
H          4.24436       -0.35045        4.66576
H          3.10929       -3.48377        2.76535
