18

C          0.91829       -0.01018       -0.06949
C          2.41830        0.00032       -0.08634
C          3.13191        1.13952       -0.08301
C          4.62415        1.22152       -0.10428
N          5.25095       -0.07351       -0.00164
C          4.60632       -1.27249       -0.08553
N          5.26894       -2.38304       -0.13347
C          3.08274       -1.34798       -0.11189
H          0.49961        1.00161       -0.05853
H          0.55207       -0.53254        0.82020
H          0.53205       -0.52130       -0.95726
H          2.61413        2.09548       -0.06900
H          4.96178        1.84426        0.73074
H          4.94473        1.70815       -1.03150
H          6.25897       -0.06922       -0.06075
H          6.26928       -2.18578       -0.09368
H          2.76566       -1.93600        0.75751
H          2.78836       -1.89282       -1.01643
