14

N          0.92322       -0.02194       -0.06019
C          2.18418       -0.02194       -0.06019
C          3.70418       -0.02194       -0.06019
C          4.24672        1.31288       -0.56195
C          4.95171        1.14212       -1.89223
O          5.84719        0.04087       -1.75982
N          5.16411       -1.19060       -1.70999
C          4.16326       -1.19733       -0.88291
H          4.02564       -0.19770        0.97350
H          4.98266        1.66953        0.17115
H          3.47697        2.09013       -0.63304
H          5.53926        2.03317       -2.13069
H          4.25231        0.96516       -2.71784
H          3.62827       -2.15198       -0.74219
