17

O          1.09671        0.11969        0.03154
C          2.52877        0.11605        0.03225
C          3.26179       -1.04805        0.85447
C          4.44075       -0.55696       -0.10870
C          3.26342       -0.62076       -1.18513
C          4.75366        0.91417        0.25568
N          4.27513        2.06025       -0.47244
C          3.26560        1.44719        0.36019
H          0.83424       -0.78827       -0.19411
H          2.89134       -2.06985        0.71794
H          3.41569       -0.85884        1.92086
H          5.29198       -1.22425       -0.24577
H          2.89333       -1.61486       -1.46180
H          3.41007       -0.03936       -2.09876
H          5.37396        1.02009        1.13607
H          4.11840        1.86964       -1.46142
H          2.96264        1.88239        1.30277
