18

C          1.21926        0.70942        0.86550
O          2.62852        0.61459        0.70228
C          3.06324        1.23425       -0.50659
C          4.53627        1.02759       -0.64357
C          5.28792        1.63087       -1.78763
N          5.57072        2.04558       -0.40387
C          5.21624        3.32187       -0.05829
N          5.80669        4.04005        0.83448
H          0.94471        0.20063        1.79322
H          0.70297        0.22055        0.03436
H          0.91258        1.75748        0.93609
H          2.77686        2.28998       -0.49826
H          2.56169        0.75103       -1.35330
H          4.84015        0.03906       -0.31735
H          4.81787        2.37603       -2.41421
H          6.10041        1.06836       -2.22695
H          4.37863        3.75736       -0.62829
H          6.55745        3.46215        1.23163
