16

N          3.14182       -0.43872       -1.24742
C          2.45407       -0.11181       -0.11521
N          1.16780        0.00908       -0.11682
C          3.22418        0.11564        1.18925
O          4.63188        0.11874        0.96115
C          5.33719        0.26712        2.19311
C          6.83160        0.22568        1.91847
C          8.11351        0.19013        1.68289
H          2.72660       -0.17322       -2.12879
H          4.13899       -0.22951       -1.18691
H          0.81309       -0.21209       -1.05014
H          2.95281       -0.68965        1.88072
H          2.91228        1.07915        1.60757
H          5.07776       -0.54825        2.87746
H          5.08317        1.22798        2.65402
H          9.16012        0.15970        1.48549
