12

O          1.00160        0.20926       -0.03504
N          2.38920        0.03686       -0.05277
C          3.02532        1.16021       -0.20932
C          4.48264        1.18865       -0.25132
C          5.03988        2.39407       -0.33521
O          4.41397        3.61036       -0.37565
N          3.00663        3.61474       -0.45265
C          2.36931        2.49040       -0.36851
H          0.67713       -0.70242        0.09855
H          5.04113        0.26577       -0.20352
H          6.11230        2.54199       -0.36148
H          1.27159        2.49129       -0.42630
