21

C          1.30333       -0.20235        0.49969
O          2.23084       -1.22233        0.85079
C          2.99419       -1.82757       -0.22057
C          3.93262       -0.79634       -0.84617
C          3.75626       -3.13926        0.19287
C          3.42817       -3.67371       -1.21875
N          3.02958       -5.06920       -1.13836
C          2.18353       -2.76261       -1.18663
H          1.57184        0.71526        1.03442
H          0.30205       -0.51297        0.80663
H          1.29369        0.00061       -0.57531
H          3.38201       -0.09069       -1.47490
H          4.44931       -0.22465       -0.06697
H          4.70307       -1.25531       -1.47427
H          3.28715       -3.66852        1.03387
H          4.82413       -3.02822        0.41168
H          4.16643       -3.43960       -1.99150
H          3.65706       -5.64301       -0.57521
H          2.98824       -5.52667       -2.04895
H          1.28910       -3.19042       -0.71254
H          1.89068       -2.31827       -2.14013
