17

N          1.20443       -0.10653        0.56496
C          2.56730        0.12201        0.05809
C          2.93475        1.60228        0.12615
O          2.12716        2.51786        0.02088
O          4.28504        1.74243        0.23181
C          4.78004        3.08541        0.27416
C          5.50681        3.27201        1.57055
C          5.16582        4.17060        2.50386
H          0.86340       -1.00539        0.23124
H          0.58969        0.60921        0.16884
H          2.63527       -0.19056       -0.98902
H          3.26787       -0.46414        0.65937
H          3.99991        3.84197        0.13669
H          5.49014        3.19864       -0.55200
H          6.36828        2.63092        1.74162
H          4.30846        4.82590        2.37688
H          5.73454        4.26268        3.42357
