20

N          0.83748        1.45943       -1.30700
C          2.29330        1.53110       -1.36781
C          2.88791        1.41901        0.03531
C          4.40566        1.48011        0.02091
N          4.95976        2.75704       -0.47967
C          5.12348        1.12874        1.34461
O          6.04156        0.23662        0.65994
C          5.22910        0.30082       -0.54191
H          0.45084        1.60231       -2.23982
H          0.47589        2.22037       -0.73220
H          2.58045        2.47754       -1.83785
H          2.66719        0.72334       -2.00593
H          2.56194        0.47176        0.48584
H          2.49092        2.21808        0.67463
H          4.62228        3.58730        0.00290
H          4.84255        2.92210       -1.47755
H          4.52655        0.57249        2.07575
H          5.64622        1.94135        1.85943
H          4.68105       -0.63754       -0.67910
H          5.83374        0.49523       -1.43320
