17

N          0.75798        0.09604       -0.08587
C          2.22354        0.14399        0.08922
C          2.64333        0.24972        1.49622
C          2.86881       -0.76383        2.34421
C          3.07401       -0.64651       -0.89329
O          2.34203       -1.34131       -1.93094
C          3.06302        0.85851       -0.95860
O          4.28615        1.51031       -0.55479
H          0.35436       -0.48101        0.65197
H          0.56014       -0.43001       -0.94039
H          2.74171        1.26575        1.87632
H          2.76322       -1.79734        2.03014
H          3.15029       -0.57275        3.37483
H          3.97030       -1.13199       -0.52158
H          2.26384       -0.79242       -2.72975
H          2.52003        1.33459       -1.76797
H          4.73759        1.03468        0.16325
