18

O          1.02237       -0.08160       -0.17810
N          2.39921        0.12904       -0.03270
C          3.03207       -0.83594       -0.62718
C          4.54354       -0.89341       -0.68851
C          5.07728       -0.20752       -1.93185
C          6.46556        0.21300       -1.50379
C          6.27585        0.60741       -0.05118
N          5.15725       -0.19323        0.46087
H          0.63973        0.66520        0.31933
H          2.48850       -1.63727       -1.15892
H          4.84887       -1.94525       -0.66315
H          4.47787        0.67231       -2.19843
H          5.09972       -0.87509       -2.79898
H          6.86011        1.03063       -2.11361
H          7.15400       -0.63750       -1.57958
H          6.02771        1.67290        0.02080
H          7.18309        0.43254        0.53548
H          4.45110        0.43949        0.85188
