14

O          1.25377        1.14928        0.30589
S          2.37548        0.37515       -0.19190
O          2.68749        0.28064       -1.60444
C          3.81814        0.60875        0.78255
C          3.91950       -0.90384        1.07205
C          2.47703       -1.19178        0.60137
C          4.90620       -1.67956        0.34124
C          5.61835       -2.44341       -0.24944
H          3.60780        1.21477        1.67155
H          4.64692        1.07127        0.23962
H          4.03729       -1.08019        2.14982
H          2.35981       -2.02721       -0.09660
H          1.75435       -1.30820        1.41366
H          6.17888       -3.19094       -0.76479
