17

N          2.32098        1.45482        0.23067
C          2.46116        0.02960       -0.06922
C          2.95259       -0.74962        1.14316
C          2.00730       -0.71594        2.32763
C          2.32128       -2.01775        3.01800
O          2.63045       -2.93152        1.96526
C          3.01381       -2.22607        0.85840
O          3.38541       -2.74046       -0.18336
H          1.95009        1.93069       -0.59284
H          3.24307        1.86319        0.38810
H          3.15822       -0.09292       -0.90618
H          1.49340       -0.35890       -0.40742
H          3.95683       -0.42567        1.44385
H          0.96251       -0.72135        1.99194
H          2.15041        0.15123        2.97890
H          1.46978       -2.39213        3.59326
H          3.19059       -1.93965        3.67956
