15

O          1.11392        0.31403       -0.06029
C          2.32553        0.14275        0.05320
C          3.07687        0.35838        1.34424
C          3.16654       -0.93213        2.14232
C          3.24346       -2.03913        2.82691
C          3.14432       -0.31374       -1.10808
C          2.56601       -1.21980       -2.16142
N          2.70516        0.21153       -2.41441
H          2.55053        1.11905        1.93072
H          4.07983        0.74339        1.13424
H          3.30030       -2.94263        3.39012
H          4.21884       -0.35145       -0.96619
H          1.55664       -1.59516       -2.04123
H          3.24078       -1.86298       -2.71208
H          1.79104        0.66912       -2.31073
