16

C          1.71299       -0.59535       -0.67463
O          2.59188        0.18188        0.12872
C          3.12064       -0.54576        1.13287
C          3.95271        0.01916        2.06920
N          4.27655       -1.00559        2.90862
C          5.12036       -0.93018        4.07262
C          3.65044       -2.13115        2.45530
N          2.93670       -1.88191        1.37964
H          1.35004        0.04017       -1.48801
H          0.84525       -0.92946       -0.09512
H          2.23123       -1.45036       -1.12369
H          4.31615        1.02881        2.19392
H          5.43244        0.10492        4.23251
H          5.99585       -1.56274        3.90680
H          4.55143       -1.28298        4.93696
H          3.74485       -3.09435        2.93960
