21

O          2.58584        0.13081        1.35535
C          2.29386       -0.13210       -0.01082
C          2.87282       -1.48210       -0.41652
C          4.39894       -1.49466       -0.28190
N          4.96009       -2.76365       -0.76360
C          6.43843       -2.76110       -0.57787
C          6.31408       -4.22109       -0.10839
C          4.87856       -3.81983        0.28426
H          2.20968        1.00266        1.56577
H          2.71658        0.67343       -0.62017
H          1.20675       -0.13344       -0.13734
H          2.58421       -1.69733       -1.45248
H          2.44214       -2.26509        0.21935
H          4.69207       -1.27758        0.75342
H          4.80451       -0.68425       -0.90111
H          6.82322       -2.08363        0.19480
H          7.01299       -2.61135       -1.49689
H          6.97421       -4.52349        0.70779
H          6.37038       -4.95841       -0.91735
H          4.79051       -3.46839        1.32035
H          4.11847       -4.58591        0.10537
