20

C          1.07394       -0.12098        1.27132
C          2.48275        0.05094        0.73481
N          3.17955       -1.22791        0.69255
C          4.52613       -1.39646        0.42734
S          5.60813       -0.17139        0.09692
N          4.83236       -2.74363        0.48095
C          6.15131       -3.31902        0.25267
C          6.07067       -4.83180        0.17060
H          0.58095        0.85017        1.37496
H          1.08430       -0.61154        2.25025
H          0.47340       -0.73943        0.59611
H          3.04362        0.73950        1.37520
H          2.45731        0.46184       -0.27975
H          2.61717       -2.02116        0.41519
H          4.23568       -3.26105        1.11177
H          6.80622       -3.01526        1.07630
H          6.55685       -2.91664       -0.68108
H          5.75017       -5.25664        1.12780
H          7.04678       -5.25502       -0.08328
H          5.34842       -5.14510       -0.59061
