16

O          1.03322        0.34968        0.19095
C          2.41399        0.05600       -0.00798
C          2.62575       -1.43491       -0.25980
C          2.64502       -1.49538       -1.77345
N          2.36315       -2.58284       -2.41159
N          3.03708       -0.29551       -2.34147
C          2.03475        0.74758       -2.51088
C          2.88996        0.72097       -1.26990
H          0.67508       -0.29219        0.82735
H          2.96389        0.40016        0.87297
H          1.85697       -2.07779        0.16791
H          3.61894       -1.75165        0.08546
H          2.10414       -3.32937       -1.76141
H          1.01168        0.40334       -2.48254
H          2.28905        1.44985       -3.29461
H          3.75906        1.35242       -1.17027
