17

O          1.17406       -0.00660       -0.35671
C          2.36781        0.01092       -0.04623
C          3.07829       -1.25578        0.40396
N          4.05621       -1.04460        1.47643
C          3.54786       -0.23740        2.58029
C          3.65869        1.23987        2.32890
C          3.55220        1.88211        1.15243
C          3.19170        1.28033       -0.17329
H          3.58781       -1.68307       -0.46629
H          2.32730       -1.98013        0.73650
H          4.90725       -0.61660        1.11408
H          4.16499       -0.46966        3.45562
H          2.52023       -0.50692        2.85403
H          3.87417        1.83647        3.21463
H          3.70870        2.96052        1.14381
H          4.08274        1.08494       -0.77964
H          2.58056        2.00273       -0.72679
