14

C          1.60086       -0.57174        0.62547
O          2.57967        0.10813       -0.15105
C          3.10069       -0.68810       -1.10801
C          4.02630       -0.23552       -2.01267
O          4.35577       -1.27845       -2.82580
C          3.59303       -2.30553       -2.35861
N          3.73765       -3.47647       -2.97862
N          2.83172       -2.01320       -1.33211
H          1.27238        0.10485        1.42060
H          2.01590       -1.46880        1.10039
H          0.72790       -0.82604        0.01516
H          4.51703        0.70614       -2.20134
H          4.58541       -3.60551       -3.51609
H          3.43959       -4.29317       -2.45982
