15

O          3.01047       -1.72878       -1.12224
C          2.44241       -1.38410       -0.09034
C          3.10912       -0.71340        1.09689
C          4.59072       -0.56904        0.90690
C          5.51450       -1.11285        1.71714
C          6.99735       -0.98705        1.50366
C          7.64260       -0.31837        2.70655
N          8.17789        0.23635        3.70444
H          1.35534       -1.53981        0.02236
H          2.87458       -1.30870        1.98601
H          2.65675        0.27579        1.21980
H          4.90366        0.00758        0.03663
H          5.19947       -1.70177        2.57743
H          7.22864       -0.40291        0.60607
H          7.43124       -1.98441        1.37392
