16

O          0.96141       -0.01996       -0.06812
C          2.38434       -0.02961       -0.11255
C          2.93230        0.97864        0.89326
C          4.43127        1.02601        0.90241
C          5.19870        1.85404        0.10355
S          6.87748        1.65570        0.36122
C          6.60710        0.46261        1.55341
C          5.26507        0.22036        1.74617
H          0.65291       -0.67227       -0.72067
H          2.70070        0.22093       -1.13086
H          2.73125       -1.04236        0.11930
H          2.56009        0.73277        1.89610
H          2.52652        1.97407        0.67124
H          4.85313        2.57403       -0.62622
H          7.44331       -0.00250        2.05693
H          4.89504       -0.50238        2.46412
