14

C          1.11792        0.08918       -0.05856
C          2.45190        0.03847        0.04454
C          3.25526       -1.23935        0.07046
S          4.85327       -0.71076        0.70994
O          4.92308       -1.00834        2.12766
O          5.89749       -1.13268       -0.20273
C          4.56052        0.98114        0.50156
C          3.28506        1.21377        0.18075
H          0.52364       -0.81687       -0.13764
H          0.57621        1.03072       -0.04965
H          3.41043       -1.62474       -0.94177
H          2.84004       -2.00292        0.73074
H          5.33723        1.71153        0.65473
H          2.88844        2.21350        0.04735
