13

N          1.10293        0.00678        0.02307
C          2.43898       -0.08408        0.03201
C          3.33232        0.95757        0.03746
O          4.60709        0.48065        0.04653
C          4.51984       -0.88504        0.04639
C          5.73649       -1.64879        0.05558
O          5.79986       -2.87608        0.05746
C          3.19338       -1.27218        0.03732
H          0.60769        0.89312        0.03653
H          0.49818       -0.80919        0.03543
H          3.23591        2.03369        0.03604
H          6.66251       -1.04890        0.06127
H          2.83865       -2.29315        0.03483
