14

C          1.36892        0.25577        0.59713
O          2.40810       -0.23714       -0.25597
C          2.97026        0.67141       -1.09402
N          2.63044        1.91560       -1.13121
N          3.30180        2.73505       -2.04698
C          4.21069        2.24284       -2.81977
O          4.63922        0.96452       -2.87796
C          4.02349        0.06355       -1.97036
H          1.14316       -0.52068        1.33382
H          0.46705        0.45019        0.00843
H          1.68661        1.15413        1.13536
H          4.75018        2.86431       -3.54942
H          4.80608       -0.36542       -1.33584
H          3.57055       -0.74509       -2.55302
