15

N          4.91957       -2.03571        3.20163
C          5.12957       -1.48717        2.19968
C          5.37184       -0.83189        0.96695
C          5.69681        0.46263        0.89257
O          5.87482        1.08064       -0.31891
C          6.80755        2.17761       -0.25927
C          6.56787        3.22490       -1.31571
C          6.29910        3.53927        0.12472
H          5.28813       -1.42080        0.06069
H          5.80238        1.11466        1.75055
H          7.84492        1.94334       -0.03640
H          5.71669        3.10116       -1.97843
H          7.43492        3.66995       -1.78702
H          5.26596        3.63755        0.43833
H          6.98313        4.21411        0.62574
