17

O          1.88786       -1.01556       -2.08019
N          2.42948       -0.09227       -1.17897
C          3.67332        0.10719       -1.47861
C          4.52806        1.02916       -0.64809
C          5.05253        2.13985       -1.50950
C          6.36098        2.37271       -1.69489
C          6.86410        3.46422       -2.49386
C          8.17102        3.70069       -2.65647
H          0.97574       -1.11976       -1.74946
H          4.15993       -0.41062       -2.32478
H          5.34080        0.43222       -0.22080
H          3.93663        1.44593        0.17333
H          4.30805        2.78582       -1.97224
H          7.09758        1.72974       -1.21608
H          6.14286        4.12174       -2.97501
H          8.93393        3.08149       -2.19470
H          8.50878        4.53893       -3.25833
