18

C          1.34075       -1.06661       -0.06659
N          2.14832        0.11468        0.16741
O          2.91605        0.49977       -0.96634
C          2.13380        1.43102       -1.73363
C          3.00977        2.13876       -2.77211
N          3.66405        1.19955       -3.68501
C          2.85664        0.22159        1.34762
O          2.60724       -0.36992        2.38987
H          1.00553       -1.10276       -1.10611
H          0.47310       -1.02117        0.59637
H          1.91990       -1.96421        0.16912
H          1.69027        2.18195       -1.06896
H          1.32633        0.88647       -2.23648
H          3.78042        2.72621       -2.26244
H          2.38848        2.82474       -3.35640
H          4.23584        0.55854       -3.13101
H          4.30979        1.70907       -4.28724
H          3.68133        0.95196        1.27920
