14

N          1.20364       -0.06590        0.06936
C          2.55760       -0.07012       -0.06192
O          3.08995       -0.11513       -1.16267
O          3.16814       -0.01973        1.16503
N          4.56678       -0.02509        1.00583
C          5.13775        0.02199        2.16192
C          6.61010        0.02708        2.27207
C          7.21360        0.07476        3.46321
H          0.64985       -0.10233       -0.77336
H          0.76695       -0.02964        0.97574
H          4.56556        0.05979        3.10628
H          7.16692       -0.00982        1.34187
H          6.66458        0.11176        4.39805
H          8.29867        0.07738        3.52126
