14

N          1.04906        0.03619        0.24519
C          2.37589        0.13381        0.18694
N          3.11995        1.21449        0.17373
C          4.40641        0.72251        0.07090
C          5.57447        1.63474        0.03299
O          5.60449        2.49679        1.16676
C          4.36700       -0.65201        0.02889
O          3.06184       -1.03565        0.09122
H          0.52857        0.86769       -0.00229
H          0.64276       -0.83052       -0.07830
H          5.53103        2.25934       -0.86474
H          6.51419        1.07362        0.00844
H          4.68397        2.80065        1.28008
H          5.10138       -1.44068       -0.03868
