14

O          2.59519       -1.03178       -0.60542
C          2.17113       -0.07374        0.04331
C          3.05993        1.01931        0.61690
C          2.42455        2.38089        0.31670
O          3.40357        3.36070       -0.03805
N          4.18810        2.95381       -1.14454
C          4.68464        1.77177       -0.98167
N          4.39933        0.90174        0.03327
H          1.10202       -0.00454        0.30648
H          3.12251        0.85658        1.69796
H          1.91257        2.74853        1.21363
H          1.66966        2.33602       -0.47749
H          5.38343        1.35358       -1.72525
H          4.65626       -0.06692       -0.15619
