13

N         -2.03607        0.02148       -0.00069
C         -1.23789       -1.12878       -0.00270
C          0.03363       -0.65741       -0.00249
O          1.22898       -1.14827       -0.00367
C          2.05238       -0.03173       -0.00233
C          1.31358        1.15385       -0.00029
C         -0.00684        0.68796       -0.00048
C         -1.27396        1.22092        0.00079
H         -3.04681       -0.05034       -0.00041
H         -1.61284       -2.13947       -0.00405
H          3.11121       -0.25101       -0.00306
H          1.69368        2.16378        0.00105
H         -1.72183        2.20387        0.00242
