18

N          1.24871       -1.09249       -0.31694
C          2.00961        0.10252        0.01857
C          1.85387        1.10526       -1.07830
C          2.82258        1.60396       -1.86770
C          4.28342        1.28121       -1.82092
O          4.51088        0.22129       -2.74884
N          5.86871       -0.13039       -2.73001
C          6.03324       -1.12434       -3.53417
H          1.36936       -1.77822        0.42621
H          1.66184       -1.51067       -1.15059
H          3.05252       -0.17295        0.19587
H          1.62134        0.52999        0.94815
H          0.83216        1.43444       -1.25977
H          2.53300        2.30163       -2.65113
H          4.61270        0.98567       -0.81963
H          4.86222        2.16266       -2.12147
H          7.03436       -1.55872       -3.67753
H          5.20327       -1.57931       -4.10225
