17

O          1.07158        0.09826       -0.15415
C          2.49892        0.07395       -0.03831
C          3.22420       -0.73922       -1.07088
C          3.23555        0.76425       -1.15442
C          4.50008        1.52442       -0.87238
C          4.26317        3.03130       -0.92303
C          5.54002        3.79171       -0.60395
N          6.59928        4.42253       -0.33924
H          0.66417       -0.61552        0.36590
H          2.92345        0.10384        0.96010
H          2.63652       -1.27762       -1.80551
H          4.13169       -1.24980       -0.77179
H          2.65494        1.20097       -1.96171
H          5.25521        1.24577       -1.61747
H          4.90890        1.24284        0.10633
H          3.48757        3.32200       -0.20512
H          3.91481        3.32984       -1.91862
