21

N          1.01963       -0.01033        0.14281
C          2.47927       -0.05129        0.04787
C          2.97420       -1.45762       -0.31562
C          2.65659       -1.85136       -1.76049
C          3.13452       -0.80819       -2.77125
O          4.55659       -0.84793       -2.87147
C          2.67073        0.60606       -2.41941
C          2.97841        0.98483       -0.96769
H          0.69786       -0.71383        0.80741
H          0.58692       -0.24608       -0.74799
H          2.87499        0.21399        1.03530
H          2.54405       -2.20138        0.36677
H          4.06006       -1.50039       -0.16231
H          1.57502       -1.99397       -1.87016
H          3.13222       -2.81679       -1.97062
H          2.75226       -1.07243       -3.76332
H          4.94212       -0.56435       -2.02695
H          1.59149        0.68669       -2.59512
H          3.16005        1.33201       -3.07976
H          2.54557        1.96954       -0.75024
H          4.06319        1.10094       -0.84911
