19

C          0.82702        0.06646       -0.29874
C          2.30624       -0.12127       -0.04935
C          2.66458       -0.12931        1.43043
C          4.10945       -0.21005        1.90439
N          5.16154       -0.23783        1.04697
N          4.37854       -0.22201        3.17432
C          3.06024       -0.95822       -1.06311
N          3.24359        0.49360       -1.00531
H          0.24462       -0.60979        0.33664
H          0.55141       -0.14346       -1.33847
H          0.52790        1.09454       -0.07007
H          2.13760       -0.96907        1.90271
H          2.25263        0.78570        1.87809
H          4.98985        0.24582        0.16531
H          6.03206        0.01687        1.49868
H          3.51313       -0.18331        3.72415
H          2.54890       -1.33580       -1.94147
H          3.88881       -1.57580       -0.73858
H          2.73434        0.95749       -1.76173
