17

O          2.46290       -0.94228       -0.54637
C          3.55885       -1.37088       -0.19154
C          4.50806       -0.63558        0.73909
N          4.28001        0.80811        0.63655
C          5.18463        1.53359        1.53889
C          4.92878        3.04468        1.41620
O          4.73806        3.15169        2.85516
C          4.58879        1.70843        2.94282
H          3.88278       -2.38558       -0.47905
H          5.52898       -0.88127        0.42885
H          4.33802       -1.01164        1.75358
H          3.28120        1.00030        0.74127
H          6.24168        1.25425        1.50154
H          4.02697        3.36724        0.88518
H          5.78539        3.63233        1.07527
H          3.53849        1.43715        3.09013
H          5.19289        1.29175        3.75419
