19

O          3.34997       -0.97216        1.90637
C          2.96031       -0.38977        0.67377
C          3.46773       -1.27445       -0.41338
C          4.28672       -0.87830       -1.40182
C          4.82392       -1.80289       -2.45969
C          6.32394       -1.88917       -2.47401
C          7.08121       -2.45084       -1.29668
N          6.99669       -3.18546       -2.55526
H          3.05543       -0.36651        2.60723
H          3.37406        0.62141        0.61226
H          1.86839       -0.33449        0.63812
H          3.14769       -2.31275       -0.35943
H          4.61586        0.15714       -1.45084
H          4.48806       -1.43663       -3.43774
H          4.38563       -2.80237       -2.34492
H          6.78515       -1.07667       -3.02413
H          6.52893       -2.85016       -0.45467
H          8.04573       -2.01822       -1.06044
H          6.33650       -3.96055       -2.46712
