14

C          2.85832        0.83372        1.07985
N          2.66950       -0.01980       -0.09674
S          3.13711        0.61078       -1.59786
O          2.68989       -0.36950       -2.56382
O          2.67600        1.97985       -1.62967
C          4.90941        0.56170       -1.47586
C          5.41522        1.13000       -2.79176
N          5.83483        1.60145       -3.88340
H          2.50354        0.29428        1.96464
H          2.28072        1.75793        0.99529
H          3.91476        1.06070        1.22905
H          1.73509       -0.42866       -0.18186
H          5.23463       -0.47197       -1.34319
H          5.23583        1.19415       -0.64878
