18

C          1.03165       -0.14037        0.40116
C          2.48731       -0.08719       -0.02233
N          2.92553        0.08472       -1.42230
C          2.05091        0.21869       -2.50920
C          0.71790        0.22708       -2.59029
C          4.32984        0.11491       -1.66270
N          5.14722       -0.01790       -0.57689
S          5.14735        0.29453       -3.12010
H          0.97398       -0.27348        1.48776
H          0.51157       -0.99245       -0.04572
H          0.50983        0.79335        0.17292
H          2.94697       -1.01935        0.33209
H          2.94577        0.73243        0.54676
H          2.53774        0.33911       -3.47578
H          0.01707        0.12555       -1.78198
H          0.25854        0.34815       -3.56922
H          4.85551       -0.13891        0.37855
H          6.14596        0.00227       -0.74720
