11

N          4.96865        0.39947        2.51574
C          4.43175        0.17839        1.39641
C          3.78455       -0.08811        0.04715
C          4.20089        0.96564       -0.92003
C          4.00149        2.33438       -0.81444
S          4.69486        3.06421       -2.20301
N          5.17554        1.59903       -2.84623
N          4.85712        0.56952       -2.08011
H          2.69496       -0.08620        0.15926
H          4.08582       -1.08074       -0.30431
H          3.52711        2.91062       -0.03263
