17

O          1.13780       -0.61443       -0.81521
C          2.13768       -0.05116       -0.39545
N          3.42242       -0.09212       -0.89456
C          3.86937       -0.93981       -1.94240
C          3.03368       -1.50054       -3.06064
C          3.01144       -0.37067       -4.09587
C          2.96188        0.89843       -3.24277
C          3.84602        0.55660       -2.08009
H          2.10728        0.58422        0.50656
H          4.81160       -1.44197       -1.77607
H          2.01923       -1.74887       -2.73943
H          3.48028       -2.40597       -3.48195
H          2.18193       -0.44750       -4.80309
H          3.94969       -0.38563       -4.66701
H          1.93787        1.11195       -2.92111
H          3.33654        1.76345       -3.79678
H          4.77274        1.10531       -2.02611
