14

C          2.21146        1.08938       -0.68497
O          2.62562       -0.10894       -0.03646
C          3.20910        0.07946        1.17437
N          3.35171        1.30729        1.66387
S          4.09626        1.18853        3.14207
C          4.24529       -0.52319        3.13919
N          4.81136       -1.22696        4.14109
C          3.69509       -0.99657        1.96736
H          1.78746        0.81337       -1.65584
H          3.05937        1.75667       -0.87373
H          1.42758        1.59911       -0.11362
H          5.34372       -0.74447        4.85859
H          5.06204       -2.20325        4.01976
H          3.64025       -2.03846        1.68868
