19

C          1.08872        0.25053       -0.19757
C          2.41203        0.15408        0.01319
C          3.08346       -1.19002        0.20009
C          4.01702       -1.15681        1.41821
N          5.10082       -0.17292        1.27063
C          4.64066        1.15722        0.81875
C          3.53172        1.89440        1.51063
C          3.30291        1.32265        0.13394
H          0.45345       -0.62683       -0.25892
H          0.61057        1.21942       -0.30284
H          3.65441       -1.43700       -0.70378
H          2.34249       -1.98585        0.34066
H          4.46614       -2.14677        1.55750
H          3.44799       -0.94527        2.33145
H          5.76426       -0.53881        0.58687
H          5.45308        1.78663        0.45791
H          3.61877        2.97113        1.59857
H          3.04832        1.43233        2.36320
H          3.26991        2.01330       -0.70334
