14

C          1.10056        0.05775       -0.11418
C          2.59026       -0.05036       -0.13962
C          3.34552       -0.81081       -1.20946
C          2.66943       -1.44662       -2.30396
N          2.11743       -1.94263       -3.19499
C          3.38141        0.70477       -1.18370
C          4.60728        1.34748       -0.80148
N          5.60348        1.84990       -0.48398
H          0.69103       -0.61500        0.64592
H          0.63464       -0.19062       -1.07089
H          0.80444        1.07991        0.14677
H          2.98952       -0.08045        0.87013
H          4.23461       -1.33788       -0.87667
H          2.81493        1.23683       -1.94272
