17

O          1.30990        0.19604        0.67045
C          2.64105        0.03694        0.18436
C          2.79269       -1.30155       -0.55809
N          2.31679       -1.07079       -1.94891
C          3.36213       -0.59928       -2.85776
C          2.47306        0.39178       -2.17599
C          2.88417        1.02242       -0.92248
C          3.49307        2.20769       -0.77527
H          0.72458       -0.15408       -0.02657
H          3.34074        0.12977        1.01912
H          2.17720       -2.08040       -0.09590
H          3.83540       -1.64234       -0.55046
H          3.18722       -0.79276       -3.91051
H          4.39885       -0.68603       -2.55671
H          1.67321        0.86054       -2.73742
H          3.69682        2.84450       -1.62939
H          3.80414        2.56146        0.20204
