17

C          1.05498       -0.00250        0.57069
C          2.34593        0.02199        0.22525
C          3.17446       -1.13960       -0.26062
N          4.09142       -0.60111       -1.30208
C          5.31050        0.01355       -0.78400
C          4.11214        0.86864       -1.04866
C          3.17262        1.19465        0.02890
C          3.13570        2.30327        0.77884
H          0.49658       -0.93368        0.58658
H          0.50491        0.90699        0.79497
H          2.54792       -1.92273       -0.70008
H          3.73813       -1.58634        0.56892
H          6.13239        0.07252       -1.48805
H          5.60672       -0.19442        0.23599
H          4.07121        1.47805       -1.94389
H          3.83637        3.11512        0.60056
H          2.44008        2.41522        1.60115
