14

C          1.17559        0.08906       -0.05308
C          2.65977       -0.03105       -0.05934
N          3.38519        1.08963       -0.06284
S          4.99129        0.69306       -0.07001
C          4.76569       -1.00048       -0.06874
C          5.91707       -1.93789       -0.07427
C          3.40901       -1.25484       -0.06221
Cl         2.69524       -2.80983       -0.05830
H          0.85421        1.13608       -0.05293
H          0.75753       -0.38989        0.83817
H          0.74996       -0.39185       -0.93968
H          6.87960       -1.41613       -0.07918
H          5.88067       -2.57894       -0.96125
H          5.88952       -2.57868        0.81320
