16

N          1.11112        0.76162        0.05175
N          2.50739        0.62468       -0.11001
C          3.06375        0.31520       -1.33381
O          2.44840       -0.06530       -2.32135
O          4.40174        0.52665       -1.26844
C          5.16243        0.51347       -2.48819
C          6.16114        1.63658       -2.58912
C          6.63384        0.23516       -2.33985
H          0.86527        0.55200        1.02123
H          0.66106        0.03471       -0.51568
H          3.13468        1.10198        0.53157
H          4.69043        0.17516       -3.40705
H          6.21516        2.34281       -1.76831
H          6.33214        2.07418       -3.56466
H          7.00917       -0.01352       -1.35448
H          7.14101       -0.27443       -3.15089
