15

O          1.70373        0.87056       -1.18818
C          2.81318        0.81926       -0.65923
C          4.10362        0.61948       -1.42262
C          4.50276       -0.79533       -0.98652
O          4.46874       -1.18612        0.18793
N          5.46859        1.20969       -1.63980
C          6.11042        0.79966       -2.88756
C          5.58486        2.19770       -2.69401
H          2.89468        0.85435        0.45529
H          4.23096        1.47403       -0.72863
H          4.76019       -1.48208       -1.79868
H          5.58288        0.14988       -3.57638
H          7.17867        0.63034       -2.81141
H          4.68662        2.49792       -3.22782
H          6.30505        2.98328       -2.49756
