16

C          0.99675        0.03680        0.02099
N          2.45315       -0.02786        0.22854
N          3.07359        0.97983        1.00565
C          4.46192        0.56823        1.24871
C          4.45040       -0.89174        1.63000
S          3.08474       -1.55917        0.72130
O          2.16037       -2.15180        1.66620
O          3.56986       -2.26251       -0.44342
H          0.74295        0.96485       -0.50048
H          0.46338        0.01362        0.97574
H          0.66458       -0.79650       -0.60526
H          2.57746        1.03261        1.90214
H          4.92234        1.18244        2.02941
H          5.04411        0.71930        0.33162
H          4.24851       -1.02656        2.69619
H          5.37118       -1.40639        1.34628
