17

O          1.03419       -1.01282        0.71837
N          2.40483       -1.08693        0.99157
C          3.05639       -0.96277       -0.11900
C          4.56688       -1.00685       -0.13753
C          5.03833       -2.14543       -1.04843
C          5.37092       -1.44054       -2.32493
C          5.41389       -0.11436       -2.16361
C          5.11654        0.28433       -0.75315
H          0.63788       -1.11830        1.60342
H          2.53711       -0.82444       -1.08536
H          4.92142       -1.14309        0.89066
H          4.27024       -2.90930       -1.20492
H          5.93857       -2.62557       -0.64965
H          5.57910       -1.95511       -3.25361
H          5.66216        0.59305       -2.94370
H          4.40003        1.11073       -0.71616
H          6.04257        0.59669       -0.25807
