17

C          0.97281        0.16765        0.14176
C          2.44428        0.02767        0.12980
C          3.25937       -1.04206        0.08628
N          2.89060       -2.37035        0.05445
C          4.73496       -0.64763        0.07241
N          4.66586        0.79516        0.20327
C          3.35977        1.18260        0.15576
N          2.97381        2.40585        0.10627
H          0.47065       -0.80245        0.08213
H          0.63805        0.76718       -0.71100
H          0.64140        0.66022        1.06142
H          1.92467       -2.52515       -0.22471
H          3.54503       -2.98327       -0.42492
H          5.20659       -0.93510       -0.87253
H          5.27598       -1.08668        0.91537
H          5.32038        1.33594       -0.34511
H          3.79841        3.00787        0.17369
