16

N          0.93544       -0.03502       -0.08555
C          2.38830       -0.07564        0.11876
C          2.93128        1.06209        1.00484
N          4.32216        0.68845        1.33762
S          4.40158       -1.00462        1.54015
O          4.30904       -1.22610        2.96402
O          5.49718       -1.49395        0.73905
C          2.82956       -1.37988        0.77602
H          0.66523        0.85106       -0.51458
H          0.44122       -0.07912        0.80679
H          2.87077       -0.00509       -0.86486
H          2.35537        1.17249        1.93047
H          2.92138        2.01727        0.47125
H          4.66245        1.14119        2.18976
H          2.14599       -1.70253        1.56736
H          2.96444       -2.18277        0.04672
