22

N          2.69871        1.00478        0.86999
C          2.26844        0.00743       -0.10239
C          2.90518        0.24059       -1.47518
C          4.45157        0.21381       -1.49426
C          5.05482       -1.11196       -0.98600
N          4.69000       -2.27044       -1.80753
C          4.97268        0.55651       -2.90216
O          4.53717       -0.38500       -3.87544
H          2.20265        0.85475        1.74874
H          2.42120        1.93289        0.54899
H          1.17846        0.05451       -0.20150
H          2.50958       -0.99193        0.27210
H          2.56710        1.21434       -1.85484
H          2.50325       -0.50762       -2.16981
H          4.81636        1.00663       -0.82812
H          4.76190       -1.29883        0.05212
H          6.14801       -1.02744       -0.98757
H          3.68814       -2.44639       -1.71260
H          5.14313       -3.09993       -1.41840
H          6.06772        0.57855       -2.91492
H          4.61911        1.54533       -3.21253
H          4.69143       -1.26877       -3.47289
