14

O          1.39849       -0.35401        0.87100
C          2.45214       -0.23343        0.30197
C          3.37293        0.92371       -0.12413
C          4.37700       -0.18934       -0.48990
N          3.34222       -1.14769       -0.13191
C          3.46534       -2.49291        0.36440
C          4.51561       -2.67484        1.44802
N          5.38689       -2.82578        2.34697
H          3.67299        1.57065        0.70674
H          2.99734        1.51560       -0.96115
H          5.27288       -0.23142        0.13299
H          4.64456       -0.23513       -1.54751
H          3.73199       -3.12636       -0.48803
H          2.49505       -2.82541        0.74844
