19

O          1.01001        0.34626        0.29888
C          2.43272        0.32104        0.32759
C          2.97464        0.95718       -0.95023
C          4.46607        0.96502       -1.01204
C          5.24707        0.36381       -1.91350
C          6.67783        0.61252       -1.60813
N          6.68015        1.62382       -0.53377
C          5.30164        1.68531       -0.01152
H          0.70279       -0.08498        1.11487
H          2.76024       -0.72031        0.41518
H          2.76415        0.87097        1.21423
H          2.60028        1.98549       -1.03441
H          2.55755        0.42682       -1.81607
H          4.90556       -0.23746       -2.74255
H          7.21507        0.98681       -2.48501
H          7.16386       -0.30583       -1.26336
H          6.88148        2.52473       -0.96596
H          4.98705        2.72742        0.10597
H          5.25719        1.19059        0.96427
