18

C          0.86107        0.09877        0.10486
C          2.38549        0.05957       -0.00031
C          2.82880        0.10938       -1.46574
C          3.09121        1.12346        0.89965
C          4.22180        0.15420        1.30321
S          3.17101       -1.22894        0.98042
O          2.39006       -1.57958        2.14872
O          3.83003       -2.21597        0.15180
H          0.45580        0.97704       -0.40931
H          0.52625        0.14602        1.14666
H          0.41715       -0.79431       -0.34772
H          2.44049        1.00713       -1.95925
H          2.45780       -0.76328       -2.01386
H          3.91930        0.12679       -1.56316
H          2.49227        1.45087        1.75976
H          3.43204        2.02734        0.38318
H          4.54636        0.22927        2.34433
H          5.09878        0.17353        0.64913
