19

C          0.91133       -0.00792        0.00260
C          2.42997       -0.01844       -0.15430
C          2.83228        0.07349       -1.63003
C          3.17509        1.00179        0.75247
N          4.16532       -0.05422        1.05125
C          3.14625       -1.08254        0.74118
C          3.75140       -2.22021        0.09127
C          4.24662       -3.16942       -0.45380
H          0.47200        0.86654       -0.48928
H          0.61255        0.02120        1.05604
H          0.46972       -0.90581       -0.44309
H          2.42263        0.98101       -2.08714
H          2.45192       -0.78576       -2.19287
H          3.91980        0.10506       -1.75907
H          2.61533        1.33245        1.63605
H          3.58826        1.88434        0.25508
H          4.50511       -0.07610        2.00970
H          2.56304       -1.36940        1.62799
H          4.68943       -4.00463       -0.94412
