12

O          1.03867       -0.12996       -0.02430
N          2.42136       -0.11899        0.00256
C          3.21064        0.99269        0.01008
C          4.52344        0.56335        0.02655
C          4.50203       -0.85703        0.02823
C          3.17926       -1.24872        0.01470
C          5.62839       -1.73837        0.03953
N          6.54637       -2.44777        0.04838
H          0.84186        0.81611        0.05734
H          2.79358        1.99002        0.00102
H          5.39833        1.20242        0.03405
H          2.71604       -2.22601        0.00970
