17

O          1.89370       -0.90913       -0.62569
C          2.08495        0.07938        0.07643
C          3.01564        0.12794        1.28205
C          3.72124       -1.21361        1.55919
N          4.80025       -1.52966        0.60199
C          5.71517       -0.38130        0.52191
C          4.98343        0.93300        0.21399
O          3.94879        1.20992        1.16880
H          1.55154        1.02314       -0.13074
H          2.37230        0.36026        2.13898
H          2.99910       -2.03696        1.56319
H          4.16698       -1.17830        2.56160
H          4.36547       -1.67747       -0.31435
H          6.46780       -0.57456       -0.24997
H          6.24579       -0.29125        1.47709
H          4.55225        0.91918       -0.79363
H          5.69347        1.76536        0.25408
