10

O          1.01469        0.21892       -0.21351
C          2.21448        0.15278       -0.06317
O          3.13927        1.14648        0.00444
N          4.43585        0.50006        0.23828
N          4.31037       -0.84788        0.14167
C          3.04386       -1.07392        0.02210
C          2.66111       -2.45096       -0.05205
C          2.33061       -3.60470       -0.10759
H          5.03575        0.87569       -0.50473
H          2.03757       -4.62840       -0.15056
