14

O          1.19635        0.01044        0.47021
C          2.12433        0.39531       -0.23916
C          2.90211       -0.50504       -1.17325
N          4.28587        0.06025       -1.29628
C          5.05651       -0.87503       -0.82598
N          4.55951       -2.08828       -0.41468
C          3.88356       -2.91478       -1.41830
C          3.11221       -1.89899       -0.63745
H          2.38264        1.46685       -0.28460
H          2.41909       -0.50483       -2.15536
H          6.14534       -0.76206       -0.70772
H          3.81874       -3.95336       -1.12461
H          4.18395       -2.71687       -2.43831
H          2.48705       -2.20703        0.18760
