16

O          2.27652       -1.37892       -0.43451
N          2.26195       -0.06502        0.05440
C          3.05209        0.18400        1.25077
C          2.10546        0.44751        2.42122
C          2.83974        0.71265        3.65939
C          3.43740        0.93288        4.67352
C          2.00802        0.88441       -0.89862
N          1.49931        0.67316       -2.06389
H          2.27094       -1.94048        0.36009
H          3.72410        1.03931        1.09802
H          3.69820       -0.67579        1.47112
H          1.44649       -0.41687        2.56486
H          1.45571        1.30178        2.19112
H          3.96278        1.13426        5.57879
H          2.26448        1.90963       -0.58612
H          1.35567       -0.34510       -2.11159
