20

C          0.99869       -0.02954        0.01183
C          2.52908       -0.10568       -0.00722
C          2.99710       -1.20571        0.94303
C          4.46241       -1.59085        0.73595
C          5.40735       -0.40502        0.57809
N          4.98583        0.70513        1.42726
N          4.14895        1.64408        0.93148
C          3.06216        1.28314        0.31153
H          0.55254       -0.99754       -0.23992
H          0.63402        0.70278       -0.71726
H          0.62850        0.27430        0.99745
H          2.83567       -0.33848       -1.03450
H          2.39035       -2.11013        0.80945
H          2.84607       -0.88905        1.98379
H          4.55092       -2.22915       -0.15192
H          4.77860       -2.20267        1.59012
H          5.47473       -0.08809       -0.46964
H          6.41613       -0.72333        0.86651
H          5.81584        1.17447        1.79816
H          2.47127        2.11982       -0.10256
