16

C          1.15677        0.23272        0.93436
N          2.44078        0.03699        0.28643
O          2.32109        0.31387       -1.08791
C          3.18266       -1.11955        0.49790
N          2.76255       -2.27562        0.89177
C          4.64543       -0.98740        0.33521
C          5.39100       -1.90614       -0.60169
O          5.11753       -0.54239       -0.95167
H          0.74573        1.21001        0.65983
H          1.27538        0.21640        2.02106
H          0.43704       -0.53495        0.63922
H          2.93639        1.06255       -1.20770
H          1.74339       -2.26297        0.95991
H          5.17678       -0.63930        1.21344
H          4.83340       -2.68165       -1.11113
H          6.40718       -2.17105       -0.34801
