17

O          1.05715        1.33015        0.02926
N          2.41979        1.57913       -0.16138
C          3.09881        0.82447        0.63960
C          4.59927        0.88803        0.65228
C          5.13416        1.24430        2.02085
C          6.51066        0.62502        1.98881
O          6.38165       -0.58342        1.23191
C          5.21468       -0.47620        0.40070
H          0.64088        1.94525       -0.60389
H          2.60610        0.12131        1.33526
H          4.95587        1.60774       -0.09393
H          4.53152        0.77880        2.81079
H          5.15821        2.32119        2.21058
H          6.89618        0.39756        2.98629
H          7.22744        1.27469        1.47449
H          4.54535       -1.30365        0.66051
H          5.51112       -0.60127       -0.64562
