18

C          0.92380        0.14232       -0.13260
C          2.41299        0.15193        0.10198
C          2.81098        0.13400        1.55517
N          3.25465       -0.61668       -0.81755
C          3.28863        0.84897       -0.94172
C          4.59086        1.52159       -0.63197
C          4.34973        3.01150       -0.81204
N          4.14969        4.24750       -0.96143
H          0.44421       -0.64387        0.46026
H          0.67084       -0.03574       -1.18414
H          0.49214        1.10471        0.15950
H          2.25531       -0.64065        2.09503
H          2.58877        1.10001        2.01776
H          3.87528       -0.07989        1.70027
H          2.69958       -1.04004       -1.56270
H          2.82788        1.22541       -1.85168
H          5.36027        1.20110       -1.34294
H          4.95868        1.33168        0.37936
