17

C          0.95989       -0.03444       -0.14046
C          2.44578       -0.06761        0.01851
C          3.09815       -0.43796        1.13965
C          2.45960       -0.86911        2.42170
S          4.85329       -0.37038        1.12944
N          5.31139       -1.42632       -0.09571
O          5.27196        0.94070        0.68518
O          5.36344       -0.95691        2.34789
H          0.70229        0.27614       -1.15837
H          0.50915        0.68545        0.54939
H          0.52366       -1.02448        0.02310
H          3.01163        0.27209       -0.84818
H          1.36686       -0.84947        2.37583
H          2.76262       -0.20658        3.23923
H          2.75802       -1.89207        2.67259
H          5.10397       -1.07441       -1.02607
H          5.06424       -2.39379        0.09574
