20

C          1.20076        0.07553        0.11756
O          2.62224        0.03188        0.09224
N          3.10804        1.28021        0.51039
C          4.39610        1.22795        0.56602
N          5.17591        2.27319        0.94908
C          6.62214        2.28563        0.93958
C          7.13204        2.71998       -0.43007
C          7.11568        3.23347        2.02888
H          0.81825       -0.88333       -0.24219
H          0.83226        0.87088       -0.53766
H          0.84620        0.23478        1.14067
H          4.96342        0.31444        0.31053
H          4.68677        3.14888        1.09948
H          7.00250        1.28106        1.16031
H          6.76367        3.71664       -0.69731
H          6.79997        2.02529       -1.20897
H          8.22714        2.74578       -0.44718
H          6.76973        4.25884        1.85433
H          8.20913        3.24558        2.07014
H          6.74223        2.92285        3.01100
