14

N          1.09232        0.14266       -0.04391
C          2.53720        0.03687        0.15033
C          3.08672       -1.22373       -0.47540
C          4.03085       -0.93588       -1.37587
N          4.20117        0.40365       -1.42279
O          5.02374        0.93821       -2.40897
C          3.32054        1.12590       -0.64172
O          3.19675        2.33605       -0.56770
H          0.62791       -0.65582        0.37644
H          0.87669        0.12943       -1.03944
H          2.80025        0.09854        1.21241
H          2.75563       -2.21937       -0.22319
H          4.60170       -1.60354       -2.00162
H          5.78953        1.23393       -1.88445
