15

O          0.92721        0.22631        0.17353
S          2.36697        0.08751        0.21311
O          3.17646        0.51860        1.33096
C          2.83055       -1.55859       -0.28109
C          2.75887       -1.52267       -1.80616
N          3.27352       -0.23354       -2.34487
C          2.20190        0.75654       -2.51820
C          3.05889        0.81996       -1.30185
H          2.15500       -2.28768        0.16820
H          3.85766       -1.72829        0.05847
H          1.72560       -1.69776       -2.13499
H          3.35148       -2.34467       -2.22201
H          1.16698        0.44433       -2.43926
H          2.37612        1.49598       -3.29232
H          3.83507        1.56433       -1.21173
