13

N          2.75901        2.60050       -0.80378
C          2.27782        1.42881       -1.01378
N          3.02607        0.33432       -1.26875
C          4.48477        0.36987       -1.32522
C          5.03814       -0.98978       -0.93511
O          4.34372       -1.96252       -0.63984
C          4.98360        0.68419       -2.67486
N          5.41346        0.88987       -3.73441
H          1.98936        3.26117       -0.63797
H          1.19229        1.23110       -0.99752
H          2.60244       -0.58928       -1.31688
H          4.88339        1.08193       -0.59298
H          6.14012       -1.06083       -0.90278
