16

N          1.12733        0.05324       -0.18551
C          2.40559        0.00709        0.03194
C          3.17529        1.17753        0.65592
O          4.19626        1.72315       -0.16417
C          5.22380        0.91119       -0.54403
C          5.37434       -0.41759       -0.41950
C          4.41693       -1.42856        0.12608
N          3.07517       -1.13264       -0.29150
H          0.74852        0.96591        0.08562
H          3.59707        0.86049        1.61751
H          2.47024        1.98667        0.87502
H          5.98532        1.51887       -1.02338
H          6.30401       -0.83996       -0.79632
H          4.49489       -1.48495        1.21671
H          4.68883       -2.41536       -0.26536
H          2.48600       -1.90065       -0.58657
