12

N         -1.96121       -0.46395       -0.00010
C         -1.53415        0.88117        0.00121
C         -0.19180        0.64089        0.00055
C          0.99086        1.39027        0.00099
C          1.97411        0.40046       -0.00038
O          1.42379       -0.87079       -0.00157
C          0.12430       -0.66474       -0.00095
N         -0.90854       -1.46189       -0.00149
H         -2.92503       -0.78312       -0.00016
H         -2.20551        1.72583        0.00231
H          1.13720        2.45986        0.00210
H          3.05559        0.42334       -0.00069
