14

O          1.06177        0.03987        0.47936
C          2.36895        0.18166       -0.04564
C          2.81701       -1.09590       -0.70370
C          2.06308       -1.68425       -1.87176
N          3.25354       -0.87282       -2.09302
N          2.87273        0.45461       -2.31365
C          2.48629        1.18024       -1.19343
O          2.26994        2.38087       -1.16569
H          0.92219       -0.89136        0.71192
H          3.05796        0.46878        0.75391
H          3.45239       -1.72448       -0.09678
H          1.09605       -1.28084       -2.14831
H          2.17730       -2.74264       -2.06735
H          3.09917        0.93738       -3.17551
