18

C          1.09708       -0.04092        0.06321
C          2.57585        0.06151        0.06691
C          3.40608        1.16469        0.06271
C          4.73190        0.69012        0.06750
N          5.83008        1.45168        0.06356
C          4.70580       -0.68343        0.07604
C          5.78245       -1.70358        0.08372
N          3.37954       -1.05383        0.07482
H          0.63512        0.95161        0.06178
H          0.74589       -0.57681        0.95068
H          0.75076       -0.57707       -0.82607
H          3.08196        2.19630        0.05585
H          5.78802        2.46414        0.09182
H          6.76550        1.06510        0.10169
H          6.77515       -1.24387        0.09223
H          5.71422       -2.33897       -0.80526
H          5.70015       -2.34050        0.97042
H          3.04630       -2.00865        0.07873
