18

C          1.02187        1.09607        0.91513
O          2.43981        1.07004        0.82129
C          2.87332        1.20522       -0.52901
C          4.36840        1.16451       -0.53296
C          5.13533        2.16040       -1.00040
C          6.62206        2.09995       -1.02948
N          7.34391        1.01178       -0.65215
N          7.31499        3.12089       -1.42927
H          0.74235        0.99884        1.96775
H          0.58590        0.25971        0.35934
H          0.62821        2.04494        0.53639
H          2.49431        2.14401       -0.94754
H          2.48947        0.36964       -1.12404
H          4.80549        0.25449       -0.13660
H          4.68494        3.06926       -1.38839
H          6.96322        0.44713        0.09456
H          8.32021        1.25303       -0.51359
H          6.70331        3.89702       -1.69710
