17

N          1.04220        0.09112       -0.05066
C          2.50717       -0.01604       -0.05385
C          3.03966       -1.01683       -1.10586
O          2.59693       -0.68977       -2.42023
C          4.55966       -1.01683       -1.10586
C          5.86352       -1.01683       -1.10586
C          7.38352       -1.01683       -1.10586
C          8.06098       -0.21746       -1.93455
H          0.74655        0.63453        0.76017
H          0.63108       -0.83797        0.06236
H          2.85375       -0.30516        0.94432
H          2.90469        0.98385       -0.25912
H          2.68550       -2.02799       -0.87687
H          2.32728        0.24299       -2.39852
H          7.87834       -1.68927       -0.41319
H          7.55145        0.44679       -2.62572
H          9.14559       -0.21658       -1.93989
