17

O          1.03472        0.06591       -0.06171
C          2.24415        0.02429        0.03454
N          3.15437        1.00245       -0.36082
C          4.48451        0.46724       -0.20173
C          4.69781       -0.63684       -1.25114
C          3.73447       -1.74777       -0.77054
C          3.11845       -1.13337        0.49680
C          4.30338       -0.34943        1.07336
H          2.87197        1.84476       -0.84610
H          5.24225        1.25124       -0.17640
H          5.73100       -1.00095       -1.23848
H          4.45405       -0.30504       -2.26569
H          4.29454       -2.65963       -0.53646
H          2.98318       -1.98220       -1.53194
H          2.61936       -1.81743        1.18193
H          5.16583       -0.97566        1.32316
H          4.02348        0.26450        1.93732
