12

C          0.93355       -0.02670        0.06979
C          2.23740       -0.02670        0.06979
C          3.75740       -0.02670        0.06979
C          4.25286       -1.09171       -0.83600
C          4.53558       -2.42346       -0.59504
N          4.99638       -3.14132       -1.68602
N          5.06854       -2.38528       -2.76891
S          4.58584       -0.80652       -2.49557
H         -0.13244       -0.02945        0.06574
H          4.11253       -0.20249        1.09168
H          4.11938        0.96155       -0.23525
H          4.42673       -2.93037        0.35454
