18

O          0.90836       -0.09085        0.10857
C          2.34205       -0.12232        0.02306
C          3.09461        0.95366        0.83895
C          4.13620       -0.12410        1.21415
C          3.05076       -1.18017        0.89989
N          5.22166       -0.17334        0.28626
C          6.20662       -1.08320        0.48019
N          7.28855       -1.15837       -0.20815
H          0.63579        0.64578       -0.46548
H          2.66405       -0.16145       -1.02583
H          2.52891        1.33141        1.70079
H          3.46040        1.81196        0.26867
H          4.47663       -0.08277        2.25405
H          2.47169       -1.48964        1.77797
H          3.37953       -2.07959        0.37040
H          5.40642        0.63128       -0.29758
H          6.02471       -1.80202        1.29743
H          7.28828       -0.44555       -0.93997
