11

N          1.22614       -0.69217        0.43482
C          2.32802       -0.38912        0.22626
C          3.71885       -0.03371       -0.06700
C          4.17644        1.01994        0.86616
N          4.08584        2.32763        0.58176
O          4.62712        2.93862        1.71632
C          5.00018        1.93397        2.54931
N          4.76412        0.73518        2.07622
H          3.80962        0.30999       -1.10353
H          4.35957       -0.91702        0.03205
H          5.44440        2.21960        3.49109
