19

N          0.91965       -0.00242        0.31722
C          2.36366       -0.13838        0.13511
C          2.79521       -1.58213       -0.18032
C          2.72862       -1.69404       -1.70703
C          3.12138       -0.32400       -2.18034
C          2.10430        0.75976       -2.38493
C          2.83919        0.64853       -1.07221
O          3.83788        1.64203       -0.82177
H          0.63024       -0.59301        1.09540
H          0.43979       -0.37813       -0.49869
H          2.86136        0.20736        1.04754
H          2.19610       -2.34428        0.32655
H          3.83685       -1.71630        0.14016
H          1.71365       -1.94238       -2.03525
H          3.40997       -2.46574       -2.07798
H          4.08368       -0.27406       -2.67107
H          1.05662        0.49502       -2.43623
H          2.37144        1.57970       -3.04281
H          3.44321        2.39790       -0.35269
