13

C          0.92878        0.08235       -0.06154
C          2.41811        0.07317       -0.06124
N          3.06163        1.24328       -0.06189
S          4.69459        0.96249       -0.06144
C          4.58303       -0.74296       -0.06025
C          3.25095       -1.09492       -0.06016
C          2.80127       -2.45141       -0.05908
C          2.41725       -3.58878       -0.05812
H          0.52989        1.10223       -0.06307
H          0.54444       -0.42770        0.82770
H          0.54488       -0.43017       -0.94954
H          5.46086       -1.37262       -0.05971
H          2.07414       -4.59729       -0.05723
