13

O          1.09528       -0.05686       -0.01133
C          2.31585        0.00053       -0.06391
N          3.01910        0.86651       -0.85736
C          2.31975        1.79138       -1.70475
C          3.30749        2.64321       -2.48522
C          4.15478        3.37391       -3.15471
C          3.10867       -0.89021        0.75221
C          3.73856       -1.64515        1.44391
H          4.02941        0.85301       -0.84499
H          1.68238        2.43011       -1.08415
H          1.68238        1.22888       -2.39520
H          4.84434        3.97317       -3.70378
H          4.26719       -2.32725        2.06887
