15

O          0.91829        0.25840        0.19824
C          2.14757       -0.19570       -0.11994
O          3.02496        0.51981       -0.56624
C          2.27633       -1.64415        0.14361
C          3.46271       -2.26346        0.26178
C          4.80063       -1.67724        0.17487
C          5.28721       -0.73674        1.24523
N          5.79253       -2.10044        1.16007
H          0.31856       -0.39301        0.60326
H          1.36625       -2.22488        0.21840
H          3.44003       -3.34074        0.41631
H          5.17861       -1.52245       -0.83160
H          4.64485       -0.50033        2.08367
H          5.96086        0.05523        0.94048
H          5.38091       -2.67618        1.89409
