17

C          1.09486       -0.10168       -0.06381
N          2.53580       -0.05355       -0.05830
C          3.32040        1.06057       -0.05282
C          4.62538        0.60894       -0.04946
C          5.86114        1.42343       -0.04252
C          4.50219       -0.80249       -0.05622
N          5.52958       -1.65146       -0.06130
N          3.23413       -1.19944       -0.05842
H          0.69620        0.91570       -0.06552
H          0.76382       -0.63028        0.83373
H          0.77067       -0.63062       -0.96347
H          2.90247        2.05719       -0.05267
H          5.63221        2.49417       -0.04522
H          6.46951        1.20617       -0.92638
H          6.45743        1.20813        0.84992
H          6.49860       -1.37135       -0.02278
H          5.34243       -2.64575       -0.03566
