15

O          1.09806        0.06989       -0.26548
C          2.31352        0.05712       -0.11001
C          3.03515        0.54749        1.12550
C          2.11716        1.13862        2.14971
C          1.14236        0.28848        2.92448
N          2.31653        0.86612        3.57222
C          3.15172       -0.48625       -1.15840
C          3.83271       -0.94370       -2.03596
H          3.75465        1.31467        0.81832
H          3.60128       -0.29338        1.54458
H          1.79840        2.14597        1.89436
H          1.13473       -0.78273        2.76774
H          0.18568        0.72732        3.18516
H          3.01870        0.14336        3.73847
H          4.41809       -1.35575       -2.82400
