13

N          1.00313        0.10423        0.04288
C          2.34049        0.01971        0.05086
C          3.23211        1.06550        0.05798
O          4.51019        0.59041        0.06760
C          4.41216       -0.76537        0.06703
C          3.09767       -1.16811        0.05693
C          5.61443       -1.51041        0.07656
C          6.62091       -2.16524        0.08467
H          0.50577        0.98915        0.05668
H          0.40190       -0.71426        0.05574
H          3.13494        2.14141        0.05676
H          2.74506       -2.18829        0.05432
H          7.50491       -2.75831        0.09225
