11

O          1.34520        0.26302       -0.75271
N          2.35466        0.03757       -0.07324
O          2.83828       -1.07567        0.16579
C          3.02649        1.16567        0.48893
C          2.68210        2.49514        0.35717
N          3.61672        3.19147        1.06758
N          4.54131        2.40559        1.64956
C          4.17821        1.16793        1.29421
H          1.87578        2.99032       -0.16602
H          3.68805        4.19651        1.19969
H          4.76737        0.32574        1.63711
