19

N          1.00634       -0.00727       -0.04398
C          2.47145        0.04783        0.06982
C          3.07237       -1.27451       -0.41675
C          4.57942       -1.24317       -0.63957
O          5.29887       -0.54275        0.37434
C          5.37431        0.80919        0.18028
C          4.44543        1.62374       -0.33808
C          3.02265        1.27341       -0.68272
H          0.65545       -0.80396        0.48816
H          0.73681       -0.17257       -1.01378
H          2.69674        0.16382        1.13830
H          2.60150       -1.59687       -1.35518
H          2.83870       -2.04992        0.32381
H          4.82833       -0.84657       -1.63365
H          4.95088       -2.27535       -0.63521
H          6.33077        1.17605        0.54017
H          4.70078        2.67683       -0.44479
H          2.92819        1.14743       -1.76773
H          2.41094        2.14549       -0.41465
