16

C          0.89086        0.01489       -0.09091
N          2.37038        0.00670       -0.19452
N          2.93325       -1.23768       -0.60164
S          3.01235        1.27444       -1.24595
O          4.45608        1.11297       -1.23737
O          2.27525        1.22094       -2.49393
C          2.61113        2.76990       -0.45545
C          3.07962        3.03669        0.77117
H          0.57480       -0.75993        0.61545
H          0.42268       -0.18551       -1.05848
H          0.53991        0.97321        0.30172
H          2.80077       -1.90783        0.15694
H          3.95103       -1.09985       -0.67117
H          1.98201        3.45699       -1.00274
H          3.72307        2.34082        1.30052
H          2.83545        3.97332        1.26449
