16

O          1.13913       -0.60793        0.06530
N          2.53150       -0.52854        0.16659
C          3.07708       -0.34554       -0.99694
C          2.33838       -0.23153       -2.33452
C          3.27627        0.60768       -3.16740
C          4.53739        0.06446       -3.78054
C          4.58434        0.65827       -2.40785
N          4.43052       -0.12703       -1.17844
H          0.86035       -0.52403        0.99610
H          1.36491        0.24936       -2.22174
H          2.21390       -1.23320       -2.76076
H          2.85211        1.54122       -3.50720
H          4.98580        0.63494       -4.58708
H          4.65001       -1.00714       -3.88367
H          5.04973        1.62693       -2.26349
H          4.91932        0.12511       -0.32325
