16

C          1.03878        0.02330       -0.04303
S          2.80890        0.14595        0.03728
O          3.20440        1.34489       -0.67596
O          3.20749       -0.06561        1.41546
C          3.35983       -1.25600       -0.90902
C          4.87661       -1.31115       -0.94686
C          5.36213       -2.49036       -1.74165
O          4.61926       -3.29995       -2.28724
H          0.61535        0.85757        0.52031
H          0.72958       -0.92370        0.40283
H          0.72742        0.08147       -1.08748
H          2.94231       -1.15782       -1.91661
H          2.94277       -2.15366       -0.44115
H          5.29042       -1.39554        0.06369
H          5.28964       -0.40621       -1.40470
H          6.45903       -2.59364       -1.81139
