15

O          1.12009        0.03591        0.42936
C          2.27725        0.01497        0.04543
N          3.01944        1.14413       -0.23280
C          4.23305        0.84058       -0.92559
C          4.48211       -0.63250       -0.66634
C          3.15000       -1.19800       -0.16677
C          2.56957       -2.24326       -1.10536
C          2.07167       -3.13988       -1.91048
H          2.56782        2.05097       -0.21994
H          5.03922        1.47740       -0.55023
H          4.07548        1.04269       -1.98757
H          5.24103       -0.74510        0.11923
H          4.87385       -1.13345       -1.55796
H          3.30345       -1.67157        0.81099
H          1.65479       -3.87140       -2.56396
