15

O          1.17374       -0.42925        0.17710
C          2.05619        0.39895       -0.02706
C          3.15415        0.12946       -0.97122
C          2.99307        0.03643       -2.45408
C          1.83905        0.54608       -3.18221
C          1.68573        1.86243       -3.03180
C          2.74295        2.36691       -2.10519
N          3.65568        1.22361       -1.81348
H          2.10518        1.34164        0.54399
H          3.92601       -0.50808       -0.54976
H          3.65274       -0.63088       -2.99707
H          1.21917       -0.07962       -3.81368
H          0.93292        2.47461       -3.50996
H          2.29848        2.78557       -1.19658
H          3.31832        3.16059       -2.59011
