16

N          1.08343        0.08104        0.11729
C          2.44896       -0.09085        0.03822
C          3.12494       -1.06392       -0.59978
C          2.52347       -2.24773       -1.31658
O          1.09728       -2.28061       -1.22515
C          4.62200       -1.09464       -0.60389
N          5.28087        0.07897       -0.41136
O          5.24687       -2.12214       -0.83908
H          0.79303        1.05234        0.20109
H          0.59244       -0.38993       -0.65043
H          2.96461        0.68762        0.59577
H          2.89318       -3.18874       -0.89356
H          2.78487       -2.22054       -2.37859
H          0.90549       -2.35654       -0.27072
H          4.83401        0.98099       -0.35816
H          6.28936        0.05175       -0.48479
