16

C          0.97610       -0.08354       -0.05256
C          2.47059       -0.08402       -0.04948
C          3.19986        1.09301       -0.04848
N          4.54807        1.11913       -0.04572
N          5.24092       -0.05458       -0.04375
C          4.57541       -1.23008       -0.04466
C          5.38779       -2.48594       -0.04233
C          3.18774       -1.27849       -0.04763
H          0.57470        0.93530       -0.05236
H          0.59592       -0.59376        0.83828
H          0.59960       -0.59208       -0.94593
H          2.72642        2.06847       -0.04986
H          6.45870       -2.25860       -0.03926
H          5.16856       -3.08023       -0.93479
H          5.16350       -3.08019        0.84892
H          2.67284       -2.23414       -0.04839
