21

C          3.01082        1.18362       -0.34630
O          2.30472       -0.04626       -0.21154
C          2.91571       -0.98196        0.70370
C          2.91284       -0.58079        2.15936
C          1.51345       -0.23261        2.67068
N          1.57231        0.22368        4.05979
C          2.72018       -2.43104        0.33151
C          4.06667       -1.78877        0.15880
H          2.61288        1.71371       -1.21572
H          4.07935        1.01034       -0.49956
H          2.85305        1.80455        0.53988
H          3.58273        0.27799        2.29014
H          3.32957       -1.39117        2.77206
H          0.85690       -1.10698        2.60025
H          1.06574        0.55987        2.06158
H          1.95557       -0.51477        4.64789
H          0.62533        0.39524        4.39554
H          2.15031       -2.65158       -0.56424
H          2.60460       -3.16455        1.11974
H          4.40247       -1.58385       -0.85036
H          4.85971       -2.08039        0.83766
