15

O          1.32250       -0.09972       -0.83892
C          2.33466       -0.07845       -0.15148
C          2.73520       -1.23307        0.69059
C          3.84521       -0.90861        1.37602
C          4.32515        0.47231        1.12452
N          3.68712        1.42355        2.05166
C          3.21660        2.23117        0.90980
C          3.42115        1.02258       -0.00692
H          2.18507       -2.15807        0.71161
H          4.34548       -1.57841        2.06223
H          5.40335        0.59204        0.98685
H          4.31916        1.90480        2.68838
H          3.87645        3.07489        0.67328
H          2.19181        2.60125        0.99726
H          3.92915        1.24043       -0.95190
