23

C          0.48947       -0.22886        0.32573
O          1.89089       -0.18484        0.10027
C          2.63483        0.85631        0.75628
C          2.15970        2.24523        0.29186
C          2.51671        0.75676        2.28479
C          4.11304        0.69190        0.30601
C          4.82290       -0.60378        0.72689
N          4.21430       -1.81132        0.17990
H          0.08697       -1.06856       -0.24799
H         -0.00230        0.67938       -0.02963
H          0.26047       -0.40514        1.37917
H          1.13166        2.45088        0.60616
H          2.17772        2.31647       -0.80143
H          2.79088        3.04078        0.70320
H          1.50409        0.99961        2.62443
H          3.20284        1.44954        2.78354
H          2.72292       -0.25934        2.63663
H          4.15673        0.75553       -0.79026
H          4.70464        1.53266        0.69144
H          4.85966       -0.68284        1.81760
H          5.86362       -0.56212        0.38548
H          3.20139       -1.74672        0.33809
H          4.29272       -1.78500       -0.83705
