17

C          1.32209       -0.22162       -0.82005
C          2.72831        0.09452       -0.43380
C          3.89701        0.03019       -1.09768
C          5.17491        0.43945       -0.42514
S          4.12215       -0.46578       -2.75143
N          2.66690       -0.81753       -3.51037
O          4.63237        0.65707       -3.51465
O          4.82916       -1.72722       -2.77405
H          0.72630       -0.33229        0.09349
H          1.22598       -1.16471       -1.36623
H          0.87901        0.60200       -1.38762
H          2.78464        0.44280        0.59887
H          5.67710        1.22708       -0.99439
H          5.85475       -0.41894       -0.34353
H          5.00815        0.82601        0.58449
H          2.59324       -0.19451       -4.31594
H          2.72152       -1.78749       -3.81971
