16

C          0.92597       -0.08520       -0.02045
C          2.44013       -0.09539        0.06068
C          3.12608        0.93783        1.00288
O          2.35817        1.43596        2.12289
C          4.27113       -0.04513        1.34514
S          3.19334       -1.39931        1.00094
O          2.40473       -1.74210        2.16638
O          3.82065       -2.38265        0.14664
H          0.57781        0.79670       -0.56703
H          0.45999       -0.07333        0.96995
H          0.56368       -0.97244       -0.54960
H          2.86350       -0.07146       -0.95292
H          3.49590        1.80534        0.44409
H          2.05165        0.65952        2.63267
H          4.62115       -0.01754        2.38035
H          5.12957       -0.00268        0.66809
