9

O          2.81669        1.00643       -0.12404
N          2.27981       -0.09551        0.05820
O          1.17793       -0.28398        0.58710
C          3.00574       -1.23491       -0.38463
C          4.22512       -1.27957       -0.98923
O          4.49503       -2.59042       -1.21991
N          3.41519       -3.34655       -0.74376
N          2.51962       -2.49953       -0.23912
H          4.96758       -0.56229       -1.30192
