18

N          1.00777       -0.03130        0.09700
C          2.46306       -0.05441        0.07710
C          3.03907        1.15778        0.80062
C          4.56015        1.10384        0.78044
O          5.08809        2.27684        1.40687
N          6.49677        2.17376        1.38108
C          7.12841        2.98447        0.48531
O          8.33464        3.20176        0.49636
H          0.64870       -0.82926       -0.42766
H          0.66553        0.80088       -0.38348
H          2.80986       -0.07186       -0.96231
H          2.81058       -0.97588        0.55683
H          2.68755        1.19561        1.84021
H          2.69771        2.09068        0.33193
H          4.91762        1.06240       -0.25554
H          4.91419        0.21474        1.31615
H          6.96570        1.99675        2.26304
H          6.45440        3.40126       -0.27965
