15

C          2.92842        1.19022        0.75539
O          2.51328       -0.01166        0.12399
C          3.06631       -1.16220        0.76662
O          4.48589       -1.21313        0.61188
N          4.98706       -2.36230        1.25020
C          6.17839       -2.56502        0.81049
C          6.80388       -3.71926        1.38597
C          7.35505       -4.68342        1.84598
H          2.47801        2.03095        0.22039
H          4.01613        1.30095        0.71200
H          2.58774        1.21578        1.79505
H          2.63290       -2.04256        0.28235
H          2.78973       -1.16997        1.82790
H          6.70779       -1.95631        0.06156
H          7.84732       -5.53771        2.24855
