14

O          0.98115        0.14712       -0.28325
N          2.32855       -0.02232        0.01929
C          3.11467        1.09506       -0.14878
N          4.39779        1.16853        0.03161
O          4.93387       -0.02653        0.59520
C          4.41563       -1.23755        0.00589
C          2.89644       -1.27533        0.07119
C          2.23502       -2.44377        0.15057
H          0.64720        0.64062        0.48814
H          2.55831        1.98078       -0.49898
H          4.85452       -2.07159        0.56296
H          4.75871       -1.29631       -1.03331
H          2.75558       -3.39362        0.16008
H          1.14890       -2.46819        0.18114
