19

C          1.13887       -0.15976       -0.18244
C          2.64879       -0.00734       -0.21157
N          3.28459       -1.29040        0.18755
S          4.97966       -1.18920        0.25776
O          5.42374       -0.99351       -1.10311
O          5.32225       -0.26646        1.31619
C          5.41113       -2.85166        0.76331
C          6.91684       -3.02247        0.82909
H          0.65966        0.75445       -0.54745
H          0.78296       -0.35077        0.83490
H          0.81196       -0.99171       -0.81518
H          2.94821        0.79599        0.46857
H          2.96052        0.24693       -1.23037
H          3.00847       -2.03685       -0.45304
H          4.98800       -3.53711        0.02285
H          4.95580       -3.03817        1.73967
H          7.38253       -2.79025       -0.13435
H          7.17511       -4.05215        1.09265
H          7.35440       -2.35520        1.57836
