13

O          2.94687        0.87951       -0.35793
C          2.38561       -0.12021        0.08792
C          3.10805       -1.34507        0.61145
N          4.53997       -1.09827        0.60129
N          5.39015       -2.08726        0.92966
C          6.64663       -1.80206        0.79218
C          7.53723       -2.85278        1.21652
N          8.28771       -3.67274        1.55130
H          1.28342       -0.18403        0.11083
H          2.83027       -2.19471       -0.01648
H          2.76917       -1.51995        1.63759
H          4.83245       -0.28419        0.05826
H          7.06459       -0.85181        0.41231
