19

C          0.93141        0.02664       -0.68069
O          2.33761        0.10932       -0.47739
N          2.59505        1.21190        0.34809
C          3.87490        1.34594        0.47614
C          4.43056        2.48223        1.30113
C          4.78536        3.65442        0.38429
C          5.60874        1.98032        2.12781
O          6.65546        1.45942        1.31594
H          0.70168       -0.94012       -1.13614
H          0.60873        0.82413       -1.35661
H          0.39724        0.10232        0.27182
H          4.58690        0.68126       -0.04112
H          3.64306        2.81493        1.99031
H          4.67020        3.41440       -0.67755
H          5.80422        4.02091        0.54703
H          4.11653        4.49878        0.59562
H          6.02127        2.78702        2.74500
H          5.28733        1.17976        2.80189
H          6.97298        2.16353        0.72607
