15

N          1.07655       -0.01873       -0.05344
C          2.44706       -0.05372        0.01292
C          3.12377       -1.39087        0.27227
C          2.24822       -2.62090        0.50873
O          1.01887       -2.64023        0.53929
C          3.16037        1.07405       -0.17514
C          4.63748        1.15622       -0.18018
O          5.21584        2.21819       -0.37421
H          0.54733       -0.85824        0.20576
H          0.57435        0.86015       -0.10092
H          3.75810       -1.31110        1.16269
H          3.75941       -1.64454       -0.58492
H          2.81557       -3.55441        0.67215
H          2.66905        2.02315       -0.36324
H          5.19069        0.21984       -0.01342
