17

O          3.12791        1.46067        1.34872
C          3.87787        0.66395        0.43680
C          3.44462        0.96957       -1.00699
N          4.21464        0.17674       -1.97475
C          3.88622        0.45725       -3.36726
C          5.15157        0.99016       -2.75424
C          5.38033        0.89380        0.57361
O          5.90678        1.87321        1.09946
H          2.18631        1.26077        1.22229
H          3.68993       -0.38685        0.68646
H          2.37909        0.72179       -1.10350
H          3.50552        2.05362       -1.18115
H          3.07980        1.14892       -3.58158
H          3.97195       -0.38044       -4.04968
H          6.09022        0.51095       -3.00472
H          5.22097        2.05555       -2.56653
H          6.01078        0.10174        0.13524
