23

C          1.03077        0.11888       -0.00857
C          2.55113        0.09358        0.04889
C          3.12079        1.17191        0.95656
N          4.48607        0.70119        1.16508
C          4.38551       -0.74486        1.41178
C          5.70267       -1.41808        1.05546
C          3.12642       -1.20517        0.64087
C          3.32781       -2.27179       -0.43034
H          0.67773        1.06725       -0.42645
H          0.59030        0.00662        0.98817
H          0.64989       -0.69091       -0.63901
H          2.94114        0.24187       -0.96809
H          2.58279        1.23401        1.91011
H          3.10770        2.15730        0.48143
H          4.91831        1.17353        1.95737
H          4.20113       -0.89975        2.48355
H          5.97224       -1.26061        0.00585
H          5.65420       -2.49570        1.24185
H          6.51892       -1.01806        1.66824
H          2.41693       -1.60578        1.37877
H          4.02170       -1.93949       -1.20921
H          2.37701       -2.51399       -0.91672
H          3.71636       -3.19677        0.00696
