11

C          1.23217       -0.05693        0.05031
C          2.71436       -0.07048        0.04668
N          3.40827        1.07080        0.04936
S          5.02350        0.64496        0.04372
C          4.68800       -1.03733        0.03820
N          3.39194       -1.28553        0.04053
C          5.69592       -2.04667        0.03177
N          6.53444       -2.85121        0.02651
H          0.83626        0.96360        0.04958
H          0.85269       -0.56938        0.93967
H          0.84827       -0.57220       -0.83553
