22

C          1.19686       -0.24575        1.16338
O          2.21440        0.45369        1.87325
C          3.50687        0.19053        1.32196
C          4.59623        0.92046        2.12929
C          4.60205        0.38628        3.57813
N          5.65680        0.97088        4.40809
C          5.97733        0.76526        1.46232
N          6.03251        1.34582        0.11829
H          0.22692        0.15730        1.46153
H          1.23436       -1.30776        1.42119
H          1.31169       -0.11973        0.08126
H          3.50619        0.53313        0.28380
H          3.69166       -0.89179        1.33247
H          4.33901        1.98804        2.17281
H          3.63854        0.59786        4.05518
H          4.73171       -0.70225        3.57757
H          5.51804        0.68501        5.37721
H          5.56954        1.98723        4.39860
H          6.25957       -0.29232        1.40889
H          6.74123        1.27260        2.06073
H          5.50624        0.77361       -0.53879
H          6.99837        1.32460       -0.20789
