15

O          0.95259       -0.53901        1.07377
N          2.31334       -0.45064        1.39279
C          3.00839       -0.93500        0.41403
C          4.48022       -0.99450        0.41731
C          5.22825       -1.49808       -0.57830
C          6.68110       -1.37288       -0.21844
C          6.61659       -0.72194        1.13340
C          5.33664       -0.51611        1.47625
H          0.52942       -0.15063        1.86230
H          2.51717       -1.33441       -0.49165
H          4.86348       -1.92555       -1.49972
H          7.21216       -0.74067       -0.93599
H          7.16124       -2.35412       -0.16218
H          7.47681       -0.46171        1.73170
H          4.97525       -0.06650        2.38911
