14

N          2.74760        1.26112        0.26698
C          2.25192        0.34310       -0.48213
N          2.97484       -0.62769       -1.08823
C          4.43779       -0.56795       -1.16174
C          5.02834       -1.31564        0.00974
O          5.86376       -2.21170       -0.09452
C          4.90543       -1.13095       -2.48829
O          4.13710       -1.44185       -3.39719
H          1.99052        1.87389        0.59504
H          1.16731        0.27678       -0.68510
H          2.54877       -1.13109       -1.86603
H          4.79843        0.46765       -1.11790
H          4.69615       -0.97065        1.00629
H          5.99805       -1.19122       -2.62365
