18

C          1.39470       -0.52864       -0.31892
O          2.47152        0.38986       -0.14808
N          2.61722        1.08236       -1.35943
C          3.94745        0.93449       -1.93154
C          4.34807        2.39659       -2.22599
C          4.53906        2.66990       -3.70974
N          3.25765        3.27271       -1.69667
C          2.40285        2.42643       -1.20955
H          1.44300       -1.25947        0.49310
H          1.47101       -1.06572       -1.27030
H          0.44013        0.00196       -0.25633
H          3.91079        0.31393       -2.83231
H          4.64940        0.48045       -1.22157
H          5.27510        2.63840       -1.69435
H          3.63823        2.42672       -4.28311
H          5.36925        2.07643       -4.10689
H          4.76513        3.72773       -3.88131
H          1.47941        2.71275       -0.68241
