12

N          0.94121       -0.12873       -0.09085
C          2.22060       -0.06356       -0.06635
S          3.10911        1.45077       -0.07664
N          4.57286        0.67739        0.12358
C          4.39598       -0.68886        0.01365
C          5.58069       -1.57825       -0.06207
O          6.72054       -1.12938       -0.11436
C          3.15746       -1.19031       -0.05032
H          0.58054        0.83309       -0.09989
H          5.45861        1.02480       -0.24834
H          5.37238       -2.66066       -0.08946
H          2.83813       -2.21386       -0.13226
