15

O          1.71878        0.88828        1.37788
C          2.59477        0.42905        0.65795
N          2.90318       -0.90616        0.53251
C          2.19591       -1.91778        1.24824
C          0.96638       -2.54699        0.65317
C          2.22264       -3.35359        0.80161
C          3.39694        1.32775       -0.14317
C          4.04444        2.09655       -0.80152
H          3.66698       -1.16824       -0.07552
H          2.18168       -1.74284        2.32275
H          0.66508       -2.24587       -0.34324
H          0.13813       -2.75152        1.32180
H          2.76141       -3.61591       -0.10042
H          2.23909       -4.12151        1.56712
H          4.59886        2.80380       -1.37405
