14

O          1.03123        0.17784       -0.08909
C          2.22637       -0.07390       -0.13771
O          2.76421       -1.22838        0.26316
C          3.40033       -2.03340       -0.74220
C          4.24442       -1.26936       -1.75798
N          4.99999       -0.21313       -1.09164
N          4.42144        0.98780       -0.87906
C          3.19363        1.04773       -0.45121
H          2.62733       -2.61990       -1.25214
H          4.03782       -2.74413       -0.20456
H          3.61909       -0.84447       -2.55232
H          4.93206       -1.97090       -2.24335
H          5.89606       -0.07309       -1.56782
H          2.75112        2.04658       -0.30641
