19

C          0.92565        0.07971        0.04006
C          2.40832        0.03387        0.01324
C          3.20079       -1.04170       -0.02002
C          4.63616       -0.63800       -0.00141
N          4.61902        0.82924       -0.18233
C          3.23282        1.27146        0.06558
C          5.29584       -0.97667        1.30293
C          6.34263       -1.80219        1.44603
H          0.49149       -0.92412       -0.01265
H          0.54756        0.65548       -0.80965
H          0.57540        0.55205        0.96320
H          2.86953       -2.06844       -0.03634
H          5.16554       -1.10077       -0.84266
H          4.82540        1.00706       -1.16292
H          2.92696        1.99948       -0.69213
H          3.16469        1.73946        1.05347
H          4.88717       -0.49782        2.19020
H          6.79979       -2.29812        0.59650
H          6.76914       -1.98469        2.42748
