21

N          0.94473       -0.09183       -0.06551
C          2.40139       -0.06655       -0.06947
C          2.96685       -1.22299        0.74926
C          4.49112       -1.20764        0.72950
O          4.98081       -2.29074        1.52298
C          6.41477       -2.32953        1.51387
C          6.87613       -3.49351        2.38397
O          6.38460       -4.72274        1.85368
H          0.58675        0.72099       -0.56712
H          0.59752       -0.01390        0.88992
H          2.74673        0.88937        0.33940
H          2.75360       -0.13131       -1.10459
H          2.60875       -2.18438        0.35816
H          2.61522       -1.16995        1.78741
H          4.86308       -0.26243        1.14169
H          4.85514       -1.31549       -0.29876
H          6.81205       -1.38783        1.90733
H          6.75580       -2.47519        0.48280
H          6.49400       -3.39662        3.40421
H          7.96835       -3.54453        2.41472
H          5.42875       -4.57741        1.71544
