14

C          0.03278        0.92107       -0.01151
C         -0.77922       -0.32805       -0.01502
C          0.73401       -0.42261       -0.03794
C          1.44830       -0.89733        1.22623
N          1.00913       -0.63481        2.43890
N          1.82422       -1.17901        3.41378
C          2.84373       -1.82490        2.89051
S          2.89111       -1.82165        1.17634
H          0.06069        1.50530        0.90257
H          0.05387        1.51919       -0.91465
H         -1.31450       -0.58766       -0.92082
H         -1.30498       -0.59267        0.89657
H          1.19788       -0.71645       -0.97320
H          3.59158       -2.31837        3.49471
