17

N          1.09330        0.18158       -0.01645
C          2.44853        0.12301        0.05657
O          3.02462       -0.79736        0.61925
C          3.13852        1.25388       -0.60331
C          4.47967        1.30868       -0.60272
C          5.30790        2.33753       -1.23702
C          5.22202        3.77174       -0.78831
C          6.41777        2.94475       -0.41695
H          0.57622       -0.57470        0.41178
H          0.58217        0.92091       -0.47375
H          2.54417        2.01918       -1.08505
H          5.02808        0.50535       -0.10914
H          5.51785        2.15691       -2.28738
H          4.53110        4.04144        0.00193
H          5.36052        4.54574       -1.53532
H          6.52511        2.65555        0.62306
H          7.35872        3.14878       -0.91507
