14

O          0.88908        0.14449        0.25808
C          2.27429        0.04887        0.02164
C          2.99538        1.21783        0.68485
C          4.23978        0.58122        1.19772
N          5.28290        1.18234        1.63719
N          4.14796       -0.75777        1.17130
C          2.99152       -1.18035        0.59040
O          2.62496       -2.34494        0.50762
H          0.47031        0.47108       -0.55390
H          2.46166        0.04754       -1.06067
H          2.42622        1.63115        1.52538
H          3.21549        2.02048       -0.02002
H          5.16303        2.20155        1.58539
H          4.84036       -1.37660        1.55826
