15

N          1.05114       -0.02161       -0.14013
C          2.37581        0.13243       -0.09006
C          3.18300        1.23766       -0.05870
C          4.50919        0.74442       -0.02999
C          4.45111       -0.64591       -0.03609
O          3.11633       -0.99838       -0.06792
C          5.52853       -1.57281       -0.02064
C          5.31491       -2.89421       -0.02408
H          0.41639        0.75183        0.01411
H          0.65789       -0.94628       -0.00468
H          2.86207        2.26829       -0.06678
H          5.41774        1.33129       -0.01003
H          6.54424       -1.18920       -0.00858
H          4.31370       -3.31519       -0.03856
H          6.14737       -3.58827       -0.01480
