19

C          1.00646       -0.03830       -0.12764
O          2.42619       -0.03983       -0.04657
N          2.94799       -0.00996       -1.34976
C          4.23920       -0.01203       -1.27323
C          5.08925        0.01608       -2.48384
C          6.43529        0.01623       -2.49400
C          7.33540       -0.01163       -1.28895
C          7.17900        0.04649       -3.80550
H          0.60399       -0.06186        0.88834
H          0.65613       -0.92416       -0.66626
H          0.65570        0.87125       -0.62481
H          4.74772       -0.03421       -0.29695
H          4.52500        0.03739       -3.41292
H          6.80279       -0.03375       -0.33717
H          7.97675        0.87604       -1.28038
H          7.97678       -0.89876       -1.32150
H          6.50424        0.06648       -4.66784
H          7.81421       -0.84027       -3.90101
H          7.81432        0.93670       -3.85992
