13

C          3.33065       -1.12228       -0.35716
O          2.54489        0.04141       -0.07866
C          3.25019        1.16574        0.19042
N          4.53890        1.20386        0.19954
N          5.01799        2.47578        0.50394
C          6.30733        2.46480        0.50131
C          6.90696        3.73288        0.80480
N          7.43533        4.73927        1.04565
H          2.65093       -1.95446       -0.55632
H          3.95071       -1.38021        0.50760
H          3.95071       -0.96077       -1.24499
H          2.57795        2.01414        0.39346
H          6.94638        1.59283        0.29263
