15

O          1.13794        0.38587       -0.69557
C          2.23250        0.08658       -0.26579
C          2.90831       -1.23206        0.14648
N          3.96574       -0.41429        0.78899
C          3.67265       -0.17420        2.22642
C          3.48396        1.30057        2.34517
C          3.39421        1.86379        1.13951
C          3.53590        0.83646        0.09585
H          3.26668       -1.80906       -0.71459
H          2.32265       -1.88931        0.79526
H          4.52393       -0.50562        2.82824
H          2.77500       -0.68960        2.58799
H          3.41928        1.82653        3.28659
H          3.25937        2.91790        0.94228
H          4.14542        1.12221       -0.76561
