12

N          1.01636       -0.11667       -0.23513
C          2.38487       -0.00839       -0.14316
C          3.09289        1.11556       -0.09097
C          4.55143        1.11303       -0.00322
O          5.14384        2.18846        0.04535
O          5.21075       -0.07796        0.02539
N          4.49536       -1.29941       -0.01145
C          3.21136       -1.22909       -0.09431
H          0.50642        0.71896        0.04338
H          0.62602       -0.96613        0.16713
H          2.62758        2.09178       -0.12119
H          2.65035       -2.17810       -0.12789
