18

C          1.08778       -1.00129        2.13993
O          2.50511       -0.92819        2.05666
C          2.96857       -1.12682        0.71963
C          4.48636       -1.06024        0.70934
C          5.04377       -2.22372        1.47717
N          5.76742       -3.12324        0.89107
N          6.17016       -4.09106        1.80602
C          6.95037       -4.95238        1.24737
H          0.80062       -0.91007        3.19099
H          0.72641       -1.96274        1.76209
H          0.63290       -0.17965        1.57932
H          2.56365       -0.33206        0.08256
H          2.61924       -2.09675        0.34707
H          4.83572       -0.14652        1.20026
H          4.86220       -1.08286       -0.31895
H          4.81007       -2.27337        2.55687
H          7.35961       -5.78516        1.83937
H          7.24073       -4.90236        0.18417
