16

C          0.90158        0.10375        0.06468
C          2.38574        0.03738        0.07067
C          3.25811        1.10959        0.07312
N          4.53994        0.62627        0.07929
C          4.51750       -0.74686        0.08104
C          5.76314       -1.55323        0.08826
C          3.19280       -1.13477        0.07519
Cl         2.60338       -2.73171        0.07396
H          0.55043        1.14079        0.06320
H          0.49211       -0.38958        0.95199
H          0.49911       -0.38987       -0.82565
H          3.07355        2.17590        0.07123
H          5.37560        1.19743        0.08237
H          6.65540       -0.91885        0.09487
H          5.80964       -2.19143       -0.79991
H          5.79805       -2.19323        0.97575
