14

O          2.32681        1.02894       -0.15117
C          2.09877       -0.11345        0.23324
N          2.85285       -0.79695        1.14619
C          4.01444       -0.25328        1.81076
C          4.78033       -1.49415        2.23907
N          3.77167       -2.52011        2.26290
C          2.69433       -2.14567        1.46445
O          1.80402       -2.89808        1.10747
H          1.25377       -0.70349       -0.15872
H          3.66116        0.31334        2.68046
H          4.58760        0.41502        1.16222
H          5.26393       -1.40072        3.21345
H          5.52040       -1.77809        1.48415
H          3.93453       -3.50499        2.43429
