14

N          3.27220        1.24367       -0.34925
C          2.48671        0.01984       -0.13709
C          2.93795       -0.68675        1.09116
C          3.50590       -0.21291        2.25490
O          3.78650        1.08960        2.45381
C          3.75124       -1.26308        3.17524
N          3.40712       -2.48925        2.78398
S          2.75318       -2.38444        1.25993
H          2.93124        1.69309       -1.20100
H          4.23251        0.96434       -0.56853
H          2.57959       -0.61894       -1.02297
H          1.43149        0.29393       -0.03014
H          3.57795        1.58435        1.63053
H          4.19385       -1.15524        4.15663
