12

S         -1.40910        1.35422       -0.00398
N         -2.25754       -0.15300       -0.00601
C         -1.35830       -1.10215       -0.00609
C          0.00394       -0.66053       -0.00457
C          1.28106       -1.16429       -0.00394
C          2.15513       -0.02302       -0.00220
C          1.37388        1.12688       -0.00185
N          0.10570        0.68283       -0.00331
H         -1.63329       -2.16754       -0.00725
H          1.57277       -2.20662       -0.00462
H          3.23833       -0.04519       -0.00131
H          1.63165        2.17674       -0.00070
