19

O          0.94918       -0.22433        0.06192
C          2.37226       -0.01342        0.02703
C          3.24350       -0.94505        0.92213
C          4.33062       -0.78063       -0.17312
C          3.15336       -0.62939       -1.17462
N          5.01595        0.50274        0.08385
C          4.16851        1.67777       -0.15760
C          2.71748        1.45183        0.26981
H          0.82427       -1.18255       -0.04443
H          2.85470       -1.96713        1.01602
H          3.48991       -0.58559        1.92646
H          4.99844       -1.63341       -0.31124
H          2.74582       -1.58676       -1.52559
H          3.31507       -0.00195       -2.05568
H          5.89237        0.61710       -0.42545
H          4.19903        1.92179       -1.22718
H          4.58185        2.54714        0.36500
H          2.06099        2.11244       -0.30821
H          2.58492        1.69974        1.32958
