14

C          1.45161        0.80754       -0.59833
C          2.34135       -0.02193       -0.03730
C          3.17591        0.30801        1.16962
S          4.90986        0.21033        0.73391
O          5.24868       -1.13847        0.31406
O          5.28171        1.36729       -0.05971
C          5.70366        0.45650        2.30129
O          5.33104       -0.15418        3.29740
H          0.88064        0.49677       -1.46883
H          1.27441        1.80995       -0.22011
H          2.47643       -1.01532       -0.46494
H          2.98116       -0.41579        1.96298
H          2.98696        1.32197        1.53990
H          6.51042        1.20164        2.32524
