13

O          0.81186        0.14626       -0.02419
C          2.13314       -0.00689       -0.01961
C          3.13866        0.93669       -0.01865
N          4.42931        0.44641       -0.01269
C          4.41774       -0.87426       -0.00912
S          2.82878       -1.56655       -0.01348
C          5.54569       -1.74533       -0.00214
C          6.79625       -1.26459        0.00270
H          0.62726        1.10068       -0.02626
H          2.99073        2.00894       -0.02201
H          5.38588       -2.81941       -0.00049
H          6.99971       -0.19684        0.00135
H          7.64818       -1.93598        0.00823
