13

O          2.83875       -2.08101        1.73422
C          3.33324       -1.68469        0.69245
C          2.90133       -1.20120       -0.75368
C          4.28115       -0.70016       -0.79531
C          5.27900        0.09353       -1.24768
N          6.33234       -0.11337       -0.35661
C          5.92011       -0.92210        0.70905
C          4.62367       -1.21654        0.42695
H          2.14955       -0.41924       -0.88326
H          2.68162       -2.00499       -1.45216
H          5.36630        0.82752       -2.04108
H          7.22187        0.36559       -0.38316
H          6.55908       -1.11551        1.55262
