12

O          2.04528        0.24685        0.42902
C          3.00267       -0.40293        0.02679
C          2.82987       -1.49083       -0.97396
C          3.92417       -1.56080       -1.75026
N          4.91923       -2.42273       -1.37128
N          5.60683       -2.12451       -0.35762
C          5.44920       -0.96992        0.38890
C          4.36711       -0.19641        0.59656
H          2.43639       -2.37845       -0.48540
H          4.31847       -0.65284       -2.21136
H          6.36758       -0.68172        0.89801
H          4.44075        0.67173        1.24536
