16

N          1.78939        1.07086       -0.83551
C          2.41085       -0.06269       -0.15074
C          2.78038       -1.14365       -1.11438
C          2.78677       -2.47144       -0.95029
C          3.19863       -3.17136       -2.22096
C          3.39830       -1.97984       -3.14491
O          3.71689       -2.01360       -4.32127
N          3.14077       -0.84883       -2.39689
H          1.48590        1.74895       -0.13752
H          0.93991        0.74563       -1.29668
H          1.72076       -0.44933        0.60789
H          3.31195        0.28787        0.36314
H          2.53264       -2.99031       -0.03787
H          2.40114       -3.81575       -2.59758
H          4.13646       -3.71720       -2.09439
H          3.17109        0.09564       -2.76092
