14

C          1.23171        2.12679        0.94344
N          2.50894        2.09959        1.11483
O          3.00193        0.85777        0.68618
C          4.43532        0.85208        0.88077
C          5.15389       -0.47882        0.54949
N          6.10736        0.30051       -0.24981
C          5.28654        1.39360       -0.30629
O          5.30881        2.31125       -1.08830
H          0.66259        3.02929        1.21375
H          0.65967        1.27626        0.53628
H          4.72692        1.27301        1.85110
H          4.58863       -1.19503       -0.05468
H          5.62055       -0.98248        1.39888
H          6.57657        0.04162       -1.10846
