16

N          1.21503        0.36208       -0.40130
C          2.47978       -0.02318       -0.10508
N          3.02414       -1.12771       -0.47167
C          3.26303        0.87862        0.77831
O          3.15314        0.56475        2.18624
C          4.60354        1.40482        0.34173
C          3.43765        2.34191        0.44951
O          3.46610        3.24003        1.57588
H          0.56807       -0.37375       -0.65329
H          0.80674        1.04516        0.23168
H          2.37872       -1.63818       -1.07782
H          3.32711       -0.38919        2.29859
H          4.95136        1.14189       -0.65049
H          5.39118        1.47492        1.07994
H          3.01752        2.71641       -0.47789
H          3.50139        2.72116        2.40351
