14

N          1.03035       -0.00172        0.05728
C          2.36571        0.09718        0.06900
C          3.19134        1.19525        0.07490
C          4.52768        0.71946        0.08598
C          4.48097       -0.66268        0.08628
N          3.15191       -1.02091        0.07569
C          5.55120       -1.62394        0.09487
O          5.37821       -2.83936        0.09521
H          0.43603        0.82307        0.07357
H          0.52382       -0.88154        0.07965
H          2.87224        2.22874        0.07118
H          5.42373        1.32689        0.09248
H          2.82111       -1.97588        0.07205
H          6.57223       -1.20521        0.10145
