15

O          1.25327        0.05448        1.36583
C          2.13260       -0.06878        0.53533
N          2.79469        0.96105       -0.15433
C          3.80938        0.35545       -0.98147
C          3.09100       -0.92483       -1.40409
C          2.82130       -1.35062        0.04943
C          4.23670       -1.27986        0.58775
C          4.82568       -0.23889       -0.03148
H          2.62499        1.94290        0.01445
H          4.18486        0.99640       -1.77777
H          3.72156       -1.62620       -1.96090
H          2.16743       -0.73119       -1.96515
H          2.26856       -2.27774        0.17909
H          4.65921       -1.91029        1.35480
H          5.82702        0.12760        0.13307
