12

O          1.47953       -0.78761        0.28637
C          2.22577        0.11260       -0.08645
C          3.01905        0.96700        0.86081
C          4.46533        0.74925        0.65556
N          5.26433        1.73871        0.24721
O          6.53556        1.17056        0.18360
N          6.50163       -0.17482        0.54359
C          5.22539       -0.41345        0.83540
H          2.34726        0.33921       -1.16039
H          2.73965        0.71568        1.88939
H          2.73684        2.01069        0.68459
H          4.92278       -1.40141        1.15246
