12

O          0.92749        0.04072       -0.06214
C          2.27574        0.05037       -0.05468
C          3.00725        1.21526       -0.04768
S          4.69287        0.90215       -0.03847
C          4.43312       -0.79194       -0.04432
C          3.09278       -1.11323       -0.05343
C          2.62604       -2.46525       -0.06077
C          2.23777       -3.60140       -0.06747
H          0.57373        0.94588       -0.06031
H          2.65344        2.23611       -0.04738
H          5.27800       -1.46704       -0.04101
H          1.88761       -4.60670       -0.07392
