18

C          1.00962       -0.06790       -0.08707
O          2.43121       -0.09934       -0.09322
C          2.92942       -1.43887       -0.11004
C          4.45537       -1.38590       -0.08010
N          5.07412       -2.69955       -0.12735
C          5.34206       -3.47850       -1.19536
N          4.99435       -3.00171       -2.40837
O          5.85104       -4.58226       -1.06810
H          0.68977        0.97797       -0.07759
H          0.61974       -0.56043        0.80793
H          0.61215       -0.54703       -0.98686
H          2.57764       -1.94956       -1.01343
H          2.55730       -1.98279        0.76619
H          4.79163       -0.90179        0.84428
H          4.83127       -0.77050       -0.90348
H          5.30505       -3.14683        0.75117
H          4.91851       -2.01100       -2.56765
H          5.34108       -3.55056       -3.18571
