17

N          1.19460        0.05452        0.03593
C          2.55005        0.12232       -0.03859
O          3.11989        0.82045       -0.86394
C          3.24485       -0.72441        0.95767
C          4.58613       -0.76647        0.99672
C          5.36847       -1.61428        1.95420
C          6.26532       -0.77954        2.82034
C          7.59769       -0.91058        2.87203
H          0.66776        0.60880       -0.62585
H          0.69137       -0.51332        0.70024
H          2.64228       -1.30816        1.64138
H          5.16419       -0.17269        0.28860
H          5.95063       -2.34242        1.37688
H          4.69823       -2.19002        2.60367
H          5.78648       -0.03117        3.44897
H          8.12377       -1.64400        2.26855
H          8.19315       -0.27881        3.52397
