16

C         -0.04069        0.89434       -0.02868
C         -0.75405       -0.41368       -0.03514
C          0.75974       -0.39081        0.00375
C          1.48370       -0.77985        1.28647
C          1.01446       -0.59405        2.56666
S          2.12237       -1.16526        3.74129
C          3.23334       -1.65415        2.53400
C          2.76695       -1.39451        1.26359
H         -0.09186        1.50700        0.86396
H         -0.02277        1.47051       -0.94770
H         -1.22624       -0.73204       -0.95840
H         -1.30605       -0.70089        0.85137
H          1.27876       -0.65553       -0.91346
H          0.07771       -0.15687        2.88306
H          4.17357       -2.10837        2.81490
H          3.32821       -1.63095        0.36840
