14

C          1.01003        0.04175        0.04108
C          2.49647       -0.02763       -0.07779
N          3.15422       -1.14583       -0.04387
C          4.61468       -0.81972       -0.19342
S          4.83981        0.94676       -0.45167
O          5.52547        1.56581        0.65778
O          5.12789        1.24890       -1.83374
N          3.19379        1.17914       -0.22338
H          0.57565       -0.96067        0.00721
H          0.60388        0.64022       -0.77934
H          0.74473        0.51888        0.98834
H          5.02396       -1.35158       -1.05526
H          5.14020       -1.10213        0.72256
H          2.80471        2.11339       -0.26488
