15

O          1.36529       -0.10787       -0.65224
C          2.42986        0.07631       -0.06422
C          3.25438       -1.08168        0.46511
N          4.29197       -0.78051        1.46734
C          5.47902       -0.14632        0.87292
C          4.51936        0.62514        1.73973
C          3.63911        1.68424        1.19069
O          2.98409        1.30919       -0.02246
H          3.70062       -1.59216       -0.39547
H          2.55299       -1.78144        0.93462
H          5.49662        0.03667       -0.19469
H          6.42653       -0.44630        1.30367
H          4.85177        0.86705        2.74304
H          4.23271        2.57930        0.97678
H          2.87206        1.96813        1.91977
