15

N          0.92700       -0.07552        0.00338
C          2.38924       -0.08778        0.01328
C          2.93100       -1.09940        1.02523
C          4.45100       -1.09940        1.02523
C          5.75486       -1.09940        1.02523
C          7.19674       -1.04327        1.00901
O          7.79080       -2.20485        1.35598
O          7.79394       -0.02587        0.70642
H          0.60391        0.61224       -0.67752
H          0.57912        0.24276        0.90770
H          2.75724        0.91808        0.24705
H          2.74805       -0.33703       -0.99199
H          2.57932       -2.10932        0.78382
H          2.58088       -0.85680        2.03545
H          7.13039       -2.89409        1.55950
