19

C          0.89146        0.15754       -0.01180
C          2.42307        0.06898        0.02190
C          3.00576        0.23613       -1.37496
C          2.88313       -1.24749        0.70438
N          2.95309       -0.79063        2.08452
N          3.53894       -1.53650        3.11619
C          3.17571        0.56097        2.03187
N          2.93391        1.17759        0.90439
H          0.46926       -0.63357       -0.63984
H          0.56142        1.12382       -0.40437
H          0.46253        0.05210        0.99136
H          2.67918       -0.57394       -2.03723
H          4.10078        0.23850       -1.35390
H          2.68979        1.18658       -1.82109
H          3.87616       -1.55990        0.35518
H          2.17517       -2.07152        0.57830
H          3.36574       -2.53377        2.97072
H          3.05197       -1.32011        3.99245
H          3.56670        1.04651        2.93468
