15

O          2.60539       -1.45817        0.11819
C          2.30675       -0.06902        0.00942
C          2.86055        0.69143        1.21385
C          4.34937        0.74656        1.23792
C          5.17163        1.84677        1.17368
O          6.46900        1.45883        1.23691
N          6.53143        0.07981        1.34769
C          5.26090       -0.32801        1.35009
H          2.33358       -1.87554       -0.71812
H          1.21673        0.03201       -0.02312
H          2.72442        0.31049       -0.92885
H          2.51597        0.21790        2.14134
H          2.46108        1.71274        1.19937
H          5.00977        2.91130        1.09024
H          5.04855       -1.38647        1.43001
