16

C          1.19730        0.44122        0.75666
O          2.27655       -0.05453       -0.01714
C          2.91395       -1.17670        0.54409
C          4.14915       -1.40754       -0.27355
N          4.22233       -2.58556       -0.80313
N          3.06370       -3.31951       -0.41698
C          2.33205       -2.55224        0.33432
C          1.07468       -3.00793        0.98652
H          0.93191        1.43131        0.37487
H          1.47013        0.53713        1.81179
H          0.32386       -0.20393        0.64706
H          3.20347       -1.01318        1.58734
H          4.91461       -0.62925       -0.38444
H          0.88295       -4.05695        0.74534
H          0.23030       -2.41062        0.64075
H          1.17401       -2.90524        2.07070
