15

C          0.98311        0.24488       -0.05777
O          2.39613        0.11523        0.06711
N          3.00447        0.97908       -0.85660
C          4.29551        0.87887       -0.82145
C          5.15971        0.00898        0.06808
O          4.64598       -1.28705        0.31506
C          4.92896        1.80992       -1.72208
C          5.47997        2.58732       -2.45273
H          0.51084       -0.47813        0.61289
H          0.66807        0.03049       -1.08395
H          0.67171        1.25260        0.23214
H          5.29335        0.52289        1.02520
H          6.14633       -0.10969       -0.39096
H          3.69364       -1.15728        0.49362
H          5.97284        3.28043       -3.09503
