17

O          1.65057       -0.77813       -0.85840
C          2.26681       -0.03618       -0.10281
C          2.95485       -0.53078        1.11449
C          3.58265        0.35783        1.89620
C          4.29215       -0.07869        3.15380
C          4.33938       -1.60069        3.36346
N          3.26001       -2.39053        2.76954
C          2.89364       -1.99336        1.39804
H          2.32747        1.04983       -0.28967
H          3.60112        1.42063        1.66681
H          3.79380        0.40109        3.99924
H          5.31926        0.30603        3.11699
H          4.33155       -1.78566        4.44468
H          5.30179       -1.98610        3.00904
H          2.43317       -2.36347        3.35933
H          1.87129       -2.35786        1.23494
H          3.53150       -2.52741        0.68747
