19

N          2.50809       -1.20221       -0.65718
C          2.24257        0.09578       -0.02828
C          2.98347        0.25686        1.30967
C          4.50676        0.10909        1.21407
O          5.04794        1.09082        0.32975
C          2.50942        1.46247        2.15024
C          2.26215        0.42882        3.24432
O          2.44002       -0.66543        2.31129
H          1.91589       -1.30306       -1.48068
H          2.20236       -1.93141       -0.00664
H          1.16161        0.18846        0.12547
H          2.53628        0.89194       -0.72113
H          4.80066       -0.88448        0.86011
H          4.97713        0.25525        2.19244
H          4.91866        0.73862       -0.57072
H          1.60089        1.95706        1.79345
H          3.26353        2.21752        2.38697
H          1.25888        0.43721        3.67940
H          3.01321        0.39623        4.03970
