18

N          1.06142       -1.18511        0.17821
N          2.40750       -1.09639        0.24932
C          2.95575       -0.71330       -0.86071
C          4.44771       -0.56166       -0.97425
C          4.94920       -1.43968       -2.12100
O          4.38623       -0.96384       -3.34498
C          6.45475       -1.43163       -2.22139
C          7.16428       -1.48800       -3.36047
H          0.67526       -1.38592        1.10298
H          0.62511       -0.31558       -0.13478
H          2.35721       -0.46386       -1.75802
H          4.91512       -0.84096       -0.02260
H          4.65161        0.49665       -1.17151
H          4.60829       -2.47058       -1.97407
H          4.88751       -0.17196       -3.60372
H          7.00273       -1.39979       -1.28244
H          6.68358       -1.57535       -4.32947
H          8.25002       -1.49189       -3.34161
