16

N          3.37931        0.10697       -0.95315
C          2.41720       -0.00798        0.15662
C          3.08778       -0.54098        1.43439
O          4.20013        0.26650        1.77730
C          3.44881       -2.01292        1.39715
O          2.27291       -2.69544        1.85414
N          1.58731       -1.81900        2.73186
C          2.06111       -0.63739        2.51516
H          2.92631        0.60690       -1.72221
H          3.57130       -0.82274       -1.33317
H          1.56684       -0.62840       -0.14910
H          2.02971        0.99923        0.35189
H          4.59026        0.53741        0.91797
H          4.28194       -2.25266        2.06892
H          3.70688       -2.37123        0.39680
H          1.71016        0.26194        3.03844
