14

N          1.25290       -0.01563        0.43237
C          2.51346       -0.02124        0.14283
N          3.28934       -1.15394        0.03127
O          4.09692       -1.14912       -1.12463
C          5.01629       -0.05229       -1.02172
C          4.26225        1.25461       -1.18938
C          3.21749        1.31466       -0.11743
O          2.93265        2.32867        0.50364
H          0.90803       -0.96404        0.57886
H          2.76793       -2.02503        0.10394
H          5.74876       -0.16327       -1.82810
H          5.55718       -0.10350       -0.06859
H          3.74865        1.29537       -2.15526
H          4.93928        2.10835       -1.09949
