20

N          1.08352       -0.01964        0.13625
C          2.55376       -0.05920       -0.00064
C          3.02558       -1.46646       -0.43855
N          2.60925       -1.80727       -1.80597
C          3.12009       -0.83612       -2.77577
C          2.70818        0.60195       -2.45743
C          3.05344        0.99465       -1.01808
O          4.46558        1.19936       -0.89083
H          0.78726       -0.75049        0.78328
H          0.64502       -0.23817       -0.75561
H          2.99120        0.15680        0.98130
H          2.62403       -2.22306        0.24648
H          4.11697       -1.54212       -0.35923
H          1.59180       -1.83167       -1.85164
H          2.74648       -1.10510       -3.77027
H          4.21221       -0.91604       -2.83010
H          1.62902        0.71133       -2.62026
H          3.21241        1.27640       -3.15953
H          2.59597        1.96535       -0.79385
H          4.92627        0.38611       -1.15569
