17

C          1.09723        0.10196        1.33071
O          2.51676        0.13215        1.37276
C          3.05136        1.13962        0.51362
C          4.54769        1.10152        0.59742
C          5.20369       -0.07426       -0.02263
O          4.63411       -0.82285       -0.80811
C          5.27726        2.06740        1.17921
N          6.63253        2.20406        1.33852
H          0.75151       -0.75368        1.91733
H          0.73633       -0.01110        0.30345
H          0.69089        1.01578        1.77421
H          2.66673        2.11492        0.84051
H          2.71806        0.97770       -0.51844
H          6.26457       -0.22725        0.23579
H          4.75126        2.91322        1.62607
H          7.22936        1.66925        0.71423
H          6.95632        3.16008        1.47541
