15

O          0.99973       -1.37642        0.24083
N          2.36478       -1.53440        0.51382
C          3.03918       -1.07072       -0.49142
C          4.55628       -1.13308       -0.51351
O          5.07602       -1.07510        0.81302
C          5.03206       -2.41704       -1.19240
C          4.62105       -2.49545       -2.60346
C          4.26665       -2.57096       -3.74724
H          0.57504       -1.72877        1.04561
H          2.54291       -0.65772       -1.38788
H          4.91747       -0.25029       -1.05214
H          4.48375       -1.62912        1.35892
H          4.65470       -3.29064       -0.64638
H          6.12543       -2.47411       -1.12367
H          3.94220       -2.64752       -4.76052
