16

N          1.03353        0.35084       -0.10224
C          2.42415       -0.06139        0.03471
C          2.85355       -0.70740       -1.24396
C          3.39263       -0.00530       -2.31122
S          3.79218       -1.00217       -3.63986
C          3.24380       -2.39597       -2.81822
C          2.77756       -2.10374       -1.55794
N          2.29723       -3.05331       -0.73228
H          0.67476        0.63036        0.80709
H          0.48397       -0.45541       -0.39884
H          2.53274       -0.75115        0.87794
H          3.04496        0.81517        0.25042
H          3.56377        1.06086       -2.37205
H          3.29248       -3.35865       -3.30568
H          2.34057       -4.04149       -0.96503
H          2.04922       -2.87243        0.23383
