12

N          1.09860        0.02930       -0.25905
C          2.44412       -0.03865       -0.20598
N          3.23295        0.48106        0.65275
C          3.14873       -0.78306       -1.20647
C          3.74384       -1.41968       -2.03314
C          4.46185       -2.18930       -3.01217
O          4.96099       -1.45433       -4.02941
O          4.57401       -3.39973       -2.91766
H          0.62936        0.23935        0.61196
H          0.63609       -0.69915       -0.79242
H          2.69119        1.00829        1.33930
H          4.77369       -0.50389       -3.90882
