17

O          1.65105       -0.12152       -1.37248
C          2.45103        0.01606       -0.43528
C          3.01093       -1.21983        0.23933
C          3.98014       -1.10152        1.39823
C          3.49242       -0.17318        2.49410
C          3.72744        1.25321        2.13324
C          3.43301        1.84038        0.97008
N          2.81237        1.28101       -0.10925
H          3.51924       -1.78076       -0.55450
H          2.15311       -1.82557        0.55594
H          4.96575       -0.78432        1.03458
H          4.12170       -2.10392        1.82351
H          4.05691       -0.38872        3.40949
H          2.43502       -0.33957        2.73194
H          4.17612        1.86883        2.91122
H          3.63636        2.90556        0.86017
H          2.45313        1.94074       -0.79516
