16

C          1.44073        0.91318       -0.33896
O          2.40890       -0.04729        0.06642
C          3.02276        0.22262        1.24776
C          3.21536        1.47461        1.79319
S          4.05568        1.40726        3.28219
C          4.18867       -0.29357        3.18759
C          3.60661       -0.81480        2.04769
C          3.57759       -2.26454        1.69792
H          0.97103        0.54758       -1.25713
H          1.90236        1.87846       -0.57006
H          0.65685        1.02474        0.41845
H          2.92203        2.43751        1.40457
H          4.69530       -0.83383        3.97607
H          4.08362       -2.86867        2.45900
H          4.07958       -2.43688        0.74095
H          2.54447       -2.61709        1.61895
