16

O          3.30713       -1.05829       -0.24539
C          2.32836       -0.09010        0.13096
C          2.98913        1.25559        0.45526
N          2.00200        2.21375        0.94420
C          2.05626        3.34433        0.18160
N          1.42229        4.43080        0.42935
C          2.96618        3.19139       -0.95784
C          3.49664        1.97538       -0.77209
H          2.82128       -1.86143       -0.50474
H          1.80315       -0.47257        1.01313
H          1.59926        0.00648       -0.68196
H          3.80908        1.13286        1.17227
H          1.96884        2.35264        1.94646
H          0.84003        4.28775        1.25706
H          3.14747        3.92579       -1.71967
H          4.23596        1.53168       -1.42490
