20

C          1.01995       -0.22159       -0.04517
C          2.52263       -0.03965        0.15772
C          3.03522        1.29916       -0.36827
C          3.81106        1.23857       -1.67262
C          4.14766       -0.14362       -2.16434
C          4.93192       -0.25059       -3.45016
N          3.83502       -1.24987       -1.56045
N          3.28519       -1.17587       -0.33780
H          0.47187        0.59973        0.43312
H          0.67419       -1.14890        0.42739
H          0.74403       -0.24835       -1.10282
H          2.67099       -0.02676        1.24557
H          3.69295        1.74224        0.39130
H          2.20811        2.01242       -0.48485
H          4.75078        1.79565       -1.56433
H          3.24217        1.73617       -2.46725
H          5.19591        0.74119       -3.82664
H          4.34011       -0.77963       -4.19929
H          5.85483       -0.80748       -3.25997
H          2.84119       -2.06278       -0.08979
