17

C          4.77401        1.74118        1.89516
N          4.30964        0.86880        1.06644
O          4.81789        1.14649       -0.21027
C          4.36088        0.12994       -1.10304
C          4.96582        0.35391       -2.48376
C          6.46177        0.27185       -2.46547
C          7.19317       -1.00126       -2.12393
O          7.02104       -0.57188       -3.48110
H          4.48924        1.69607        2.95758
H          5.46034        2.55023        1.59389
H          3.26714        0.18219       -1.16904
H          4.64178       -0.85426       -0.71184
H          4.68456        1.34823       -2.85172
H          4.54795       -0.38104       -3.18181
H          6.94470        1.21933       -2.26344
H          6.62782       -1.86151       -1.78984
H          8.18334       -0.91717       -1.69328
