15

O          0.90042       -0.29015        0.37972
C          2.00584       -0.66576        0.77716
C          2.94373        0.10230        1.76780
C          3.35679        1.53074        1.31432
C          2.73797        2.12730        2.58264
C          2.24686        0.73914        3.00499
C          4.07105       -0.74692        2.11062
N          4.96431       -1.43866        2.37421
H          2.39783       -1.62941        0.40588
H          4.43349        1.70975        1.21816
H          2.87654        1.87256        0.39028
H          3.46691        2.57119        3.26806
H          1.93947        2.85254        2.39732
H          2.61971        0.41701        3.98419
H          1.15507        0.64487        3.01649
