18

C          0.93249       -0.16656       -0.06815
O          2.35041       -0.06879       -0.04879
C          2.78916        1.28969       -0.15502
C          4.31978        1.35136       -0.10112
O          4.91578        0.63893       -1.19767
C          4.83848        2.79613       -0.18159
N          4.18200        3.84114        0.39655
N          5.95296        3.05468       -0.79459
H          0.65854       -1.22387       -0.03878
H          0.52720        0.27613       -0.98322
H          0.50710        0.32903        0.80921
H          2.35504        1.86332        0.67235
H          2.42655        1.70496       -1.10243
H          4.69388        0.89564        0.82215
H          4.46174        0.93876       -2.00525
H          3.73177        3.66720        1.28697
H          4.77468        4.66789        0.41721
H          6.32122        2.15441       -1.15017
