17

N          1.27970       -0.30428       -1.85840
C          2.62577       -0.40573       -1.89598
O          3.21790       -1.25521       -2.54017
O          3.18156        0.56626       -1.13919
C          4.61907        0.57679       -1.11712
C          5.16613        1.28412       -2.35803
C          6.66685        1.31500       -2.38035
C          7.39382        2.43841       -2.42115
H          0.72612       -0.95005       -2.40013
H          0.84445        0.42969       -1.32278
H          5.01106       -0.44326       -1.01642
H          4.91725        1.12019       -0.21295
H          4.74650        2.29686       -2.40636
H          4.81481        0.77813       -3.26466
H          7.17781        0.35366       -2.38691
H          6.92990        3.41992       -2.43358
H          8.47846        2.39662       -2.45316
