11

O          0.89318       -0.04737        0.05687
C          2.23458        0.04465        0.05829
C          2.98601        1.18813        0.06123
O          4.30552        0.85798        0.06178
N          4.42961       -0.53150        0.05906
C          3.17417       -0.99632        0.05697
C          2.65255        2.56187        0.06356
C          2.35488        3.72495        0.06541
H          0.49145        0.84047        0.05825
H          3.00606       -2.06338        0.05458
H          2.09558        4.75840        0.06702
