12

O          3.17071        1.12442       -0.08950
C          2.47561       -0.02506        0.07429
O          1.34804       -0.10175        0.53331
N          3.16499       -1.17758       -0.33120
C          4.40755       -1.32140       -0.92128
C          4.58459       -2.67375       -1.10547
N          3.50339       -3.37100       -0.65316
C          2.67136       -2.45951       -0.20254
H          4.08294        1.05694       -0.41874
H          5.05474       -0.49730       -1.17605
H          5.43560       -3.17945       -1.54531
H          1.69838       -2.65352        0.23321
