17

N          4.19597       -2.06983        1.69012
C          4.03204       -1.14857        1.00515
C          3.81659        0.02660        0.15049
C          4.34944        1.29977        0.79803
C          4.15228        2.53835       -0.05296
C          4.27244        3.64587        0.97131
O          3.76678        3.11952        2.20444
C          3.63345        1.69631        2.08118
H          2.74642        0.12731       -0.06814
H          4.31957       -0.13108       -0.81051
H          5.42197        1.19031        1.01253
H          3.14809        2.54842       -0.49409
H          4.88084        2.63355       -0.86315
H          3.70673        4.53926        0.69231
H          5.31809        3.92893        1.13091
H          2.56321        1.46545        2.04839
H          4.06558        1.21746        2.96510
