14

N          1.91620        0.96972        0.21501
C          2.59009       -0.01232       -0.26956
N          3.60176        0.06712       -1.18702
C          3.58210        1.20894       -2.07866
S          3.42122        0.18541       -3.49322
O          4.58066        0.24990       -4.36217
O          2.06694        0.14825       -4.01250
C          3.64537       -0.97004       -2.19026
H          1.23035        0.62290        0.89660
H          2.39410       -1.04414        0.07576
H          4.52917        1.75586       -2.04426
H          2.74968        1.90589       -1.95467
H          4.61891       -1.46833       -2.21108
H          2.84664       -1.71415       -2.12224
