14

C          0.98080        0.05696       -0.10398
C          2.47357        0.04836       -0.13519
C          3.19651        0.87983       -0.90278
C          4.61795        0.83697       -0.89491
N          5.41355        0.05249       -0.18909
C          6.72764        0.35790       -0.49656
N          7.01121        1.30997       -1.37975
S          5.54260        1.90739       -1.90138
H          0.62196       -0.57695        0.71299
H          0.57227       -0.33629       -1.03978
H          0.59510        1.06700        0.06510
H          2.97102       -0.67604        0.50788
H          2.69555        1.59644       -1.54764
H          7.54086       -0.17614       -0.02007
