15

N          3.14647        2.56820        0.55605
C          3.39537        1.45298        0.34918
C          3.69923        0.04460        0.09561
C          4.23097       -0.65325        1.34612
O          4.53531       -2.02802        1.00409
C          3.57947       -2.88713        1.65383
C          2.88461       -2.02546        2.63622
C          3.25251       -0.75729        2.46686
H          4.44644       -0.03557       -0.70400
H          2.81008       -0.47489       -0.28291
H          5.16012       -0.18519        1.69190
H          4.11506       -3.71196        2.13037
H          2.88799       -3.28087        0.90288
H          2.18166       -2.38374        3.37352
H          2.90117        0.08043        3.05350
