13

C          0.95356        0.09509        0.07393
C          2.43702        0.11263        0.07888
C          3.31714        1.17463        0.08241
C          4.67785        0.71564        0.08750
C          5.85752        1.57113        0.09285
O          5.81110        2.79901        0.09323
N          4.83406       -0.61204        0.08736
S          3.34379       -1.33536        0.08135
H          0.55121        1.11348        0.07267
H          0.56729       -0.41629        0.96167
H          0.57308       -0.41624       -0.81633
H          3.02522        2.21770        0.08182
H          6.82477        1.04040        0.09676
