10

Cl         1.04508        0.06467        0.04544
C          2.75342        0.06977        0.05498
C          3.53465        1.20518        0.06236
S          5.18001        0.73627        0.07052
N          4.89565       -0.89892        0.06438
C          3.57802       -1.09489        0.05627
C          3.13991       -2.45636        0.04946
C          2.76955       -3.59891        0.04333
H          3.23405        2.24261        0.06331
H          2.44694       -4.61366        0.03769
