13

O          1.00340        0.08294        0.07350
C          2.42270        0.08827        0.04692
C          2.91674        1.28592       -0.70476
C          2.26055        2.45371       -0.81159
C          2.78041        3.55064       -1.54821
N          3.20508        4.43836       -2.16002
C          2.92936        0.15833        1.47828
C          3.36398        0.21844        2.70610
H          0.71047       -0.09282       -0.83555
H          2.76461       -0.83777       -0.42669
H          3.88556        1.16709       -1.18781
H          1.30720        2.60391       -0.31466
H          3.71140        0.26923        3.71211
