17

C          1.04481       -0.07781       -0.08349
O          2.46379       -0.13197        0.03498
C          3.09679        0.78045       -0.76458
C          4.43216        0.86446       -0.80016
C          5.19650        1.83403       -1.64880
N          5.99986        2.70665       -0.80418
C          6.07767        1.09984       -2.56861
C          6.80330        0.50955       -3.32351
H          0.61917       -0.83755        0.57851
H          0.73095       -0.29991       -1.10913
H          0.66655        0.90159        0.22879
H          2.45059        1.41894       -1.35323
H          5.00699        0.17758       -0.18325
H          4.51091        2.45836       -2.23309
H          6.66182        2.13817       -0.28033
H          5.39187        3.14961       -0.11940
H          7.45121       -0.00688       -3.99273
