17

N          1.13013       -0.19907        0.08157
C          2.60267       -0.01345        0.01774
C          2.99255        0.60720       -1.33953
O          2.50355       -0.21019       -2.40642
C          3.14779        0.81321        1.21875
O          2.75144        0.23378        2.46148
C          4.61654        0.88484        1.20040
C          5.81583        0.95544        1.17199
H          0.81857       -0.49479       -0.85030
H          0.68456        0.71061        0.21898
H          3.01430       -1.03002        0.06350
H          4.07752        0.68949       -1.45524
H          2.55751        1.60443       -1.45719
H          2.95731       -1.06976       -2.34062
H          2.73039        1.82670        1.19228
H          2.58811       -0.71075        2.29475
H          6.87791        1.02688        1.14976
