14

O          2.44045       -0.78637        1.11155
C          2.52022       -0.04632       -0.10378
C          2.95844        1.34098        0.22819
C          2.31993        2.47901       -0.08092
C          3.09576        3.54185        0.58808
O          2.90586        4.73583        0.45890
N          4.06549        2.91115        1.34931
N          4.09068        1.55785        1.01007
H          2.08470       -1.66091        0.87853
H          1.53890       -0.05577       -0.58806
H          3.24844       -0.53144       -0.76075
H          1.42074        2.64422       -0.64245
H          4.90865        3.39825        1.62710
H          4.09329        0.90702        1.80529
