18

C          3.05426       -1.20200        0.30555
N          2.44103        0.11617        0.25362
O          1.88064        0.49118        1.47964
C          3.08630        1.14654       -0.40718
N          3.95331        0.97204       -1.36550
C          4.42076        2.31378       -1.75543
C          3.37005        3.28323       -1.25729
C          2.82836        2.58545       -0.03552
H          2.41273       -1.90012        0.85352
H          4.02350       -1.15470        0.81352
H          3.19976       -1.60397       -0.70212
H          0.94115        0.25208        1.36544
H          4.53165        2.38031       -2.84212
H          5.39703        2.50474       -1.29608
H          2.57793        3.40013       -2.00632
H          3.77783        4.27468       -1.03813
H          1.76738        2.78896        0.12577
H          3.40025        2.82987        0.86581
