16

C          1.18267       -0.08567        0.33621
C          2.51574       -0.04410        0.22709
C          3.34580        1.14487       -0.11845
N          4.39666        0.63022       -1.00618
C          4.38729       -0.85420       -0.90411
C          3.43714       -1.21791        0.23592
C          3.96000       -1.49835       -2.17213
N          3.63582       -2.04142       -3.14669
H          0.57969        0.81136        0.22821
H          0.65659       -1.02090        0.50242
H          3.80349        1.54610        0.79404
H          2.77825        1.94284       -0.60559
H          5.29906        0.99490       -0.71125
H          5.39915       -1.20620       -0.67010
H          2.92283       -2.17537        0.09818
H          3.97680       -1.23928        1.19091
