15

O          1.29053        0.46915        0.34582
C          2.42225        0.12052        0.05918
C          3.48984        0.98548       -0.55461
C          4.62110        0.01118       -0.89528
C          4.29280       -1.27497       -0.13934
N          2.94255       -1.12450        0.30564
C          4.73944       -0.27441       -2.33950
C          4.90131       -0.61917       -3.47526
H          3.81359        1.69980        0.21302
H          3.09390        1.52721       -1.41664
H          5.58103        0.42111       -0.55708
H          4.34646       -2.17871       -0.75944
H          4.93440       -1.40942        0.73592
H          2.37630       -1.84761        0.73146
H          5.07463       -0.99166       -4.46060
