18

N          1.16055        0.09345       -0.84670
N          2.50272        0.16938       -0.71453
C          3.07281       -0.98161       -0.57590
C          4.54267       -1.00060       -0.43876
C          5.31889       -2.24196       -0.80896
C          5.40380       -1.01795       -1.68449
C          6.64749       -0.19890       -1.75014
O          7.67750       -0.96760       -2.35417
H          0.76669        1.03646       -0.88506
H          0.71839       -0.36619       -0.04823
H          2.52930       -1.94285       -0.55007
H          4.90832       -0.44068        0.41714
H          4.78288       -3.09769       -1.20573
H          6.16873       -2.50568       -0.19041
H          4.90813       -1.05619       -2.64926
H          6.98909        0.12721       -0.76253
H          6.48274        0.69182       -2.36388
H          7.81754       -1.74832       -1.79131
