19

C          3.10686        0.53314        2.50721
O          2.74651        0.38522        1.13976
C          2.65326       -0.89055        0.63498
C          2.84047       -2.03972        1.31019
C          2.69621       -3.36811        0.61963
C          1.87825       -3.34043       -0.68860
N          1.33886       -2.03872       -1.10118
C          2.27834       -0.95212       -0.82851
H          2.33423        0.11733        3.16289
H          3.19094        1.60310        2.72186
H          4.07986        0.07420        2.70914
H          3.10530       -2.06257        2.35940
H          3.70750       -3.73614        0.40366
H          2.23737       -4.07824        1.31426
H          1.03323       -4.03320       -0.58361
H          2.48811       -3.74890       -1.50248
H          0.49683       -1.85108       -0.55990
H          1.81225       -0.01020       -1.13789
H          3.18807       -1.06618       -1.43250
