15

O          1.15156        0.04018        0.12696
N          2.54150       -0.14504        0.17179
C          3.12903        0.91295        0.62030
O          2.48198        2.04499        1.01010
C          3.41462        3.09202        1.28405
C          4.79860        2.48466        1.34482
C          4.57655        1.12614        0.80352
C          5.49875        0.20052        0.52458
H          0.84247       -0.78854       -0.28060
H          3.14591        3.57044        2.23191
H          3.33307        3.84271        0.49063
H          5.15801        2.44324        2.37840
H          5.51028        3.06885        0.75228
H          6.55413        0.39127        0.68186
H          5.21616       -0.77671        0.14199
