14

N          1.65878        0.66131        0.93821
C          2.55493        0.10281        0.06702
O          2.84761        0.58933       -1.01371
C          3.20379       -1.17677        0.57044
O          2.54707       -2.07021        1.08780
C          4.68522       -1.13821        0.55565
C          5.43465       -1.39435        1.84157
N          5.38008       -2.41696        0.80344
H          1.12163        1.46239        0.63114
H          1.35112        0.14823        1.75752
H          5.15634       -0.49148       -0.17740
H          4.88019       -1.60172        2.75059
H          6.38710       -0.90490        1.98141
H          4.68728       -3.14046        1.03701
