17

N          1.09318       -0.10637       -0.34470
C          2.40607        0.31767        0.14481
C          2.94504        1.53294       -0.64701
C          4.36832        1.86328       -0.27069
C          5.21779        0.88191        0.07815
C          4.83978       -0.53974        0.07491
O          4.11320       -1.11375       -1.03058
C          3.36091       -0.84687        0.15590
H          0.44391        0.67674       -0.28648
H          0.72043       -0.83175        0.26512
H          2.27926        0.63102        1.19027
H          2.30801        2.40345       -0.45047
H          2.90750        1.34663       -1.72833
H          4.69221        2.89821       -0.30654
H          6.24240        1.12835        0.34459
H          5.52013       -1.19934        0.60189
H          3.03200       -1.68819        0.74760
