16

C          0.99831        0.00748        0.14542
C          2.51013       -0.10304        0.18885
C          3.19967        1.10265        0.83316
N          4.36638        0.52546        1.45047
C          4.21871       -0.85136        1.57185
S          5.35281       -1.85187        2.24591
N          2.97027       -1.20771        1.02493
O          2.94535       -2.44927        0.34424
H          0.68944        0.88795       -0.42628
H          0.57345        0.08368        1.15192
H          0.56042       -0.87780       -0.32818
H          2.91186       -0.25353       -0.82138
H          2.59803        1.55907        1.62697
H          3.49186        1.86735        0.10753
H          5.15616        1.02616        1.83568
H          3.56252       -2.98834        0.87899
