16

O          3.25605        0.32066       -1.24267
C          2.48386        0.00986       -0.07632
C          2.66671       -1.44734        0.31553
N          2.81839       -2.65620        0.64061
C          2.95543        0.90033        1.05621
C          2.77091        2.42429        0.87508
N          2.43168        2.49168        2.31530
C          1.97956        1.08551        2.24405
H          3.10086       -0.38350       -1.89593
H          1.43143        0.19089       -0.32077
H          3.97802        0.65544        1.38405
H          1.94609        2.71913        0.21601
H          3.67031        2.97862        0.59160
H          1.71718        3.17392        2.56441
H          0.91635        0.98181        1.99437
H          2.19531        0.48866        3.13396
