19

O          1.66702        3.30803        0.86229
C          2.18944        2.03425        0.52383
C          1.97585        1.13778        1.69695
C          2.88981        0.45230        2.39989
C          4.34109        0.51495        2.10700
C          5.10824        1.64770        2.81030
C          6.07229        0.56390        3.29493
N          5.09649       -0.46734        2.91057
H          1.78629        3.87473        0.08196
H          3.24260        2.14919        0.25137
H          1.63953        1.64811       -0.34040
H          0.93371        1.04518        2.00399
H          2.54206       -0.15464        3.23339
H          4.56999        0.42217        1.03833
H          4.57114        2.15663        3.61897
H          5.54916        2.39926        2.14855
H          6.30006        0.59232        4.36473
H          7.01250        0.50793        2.73605
H          4.58853       -0.85194        3.70336
