16

O          1.85642       -1.15439       -0.07217
C          2.46505       -0.09719        0.04833
N          3.15862        0.57036       -0.94846
C          3.08631        0.11330       -2.33706
C          2.67007        1.34430       -3.07146
C          3.61998        2.46695       -3.38080
C          2.82259        2.48618       -2.10849
N          3.37335        1.98394       -0.83219
H          2.49326        0.44323        1.01071
H          2.37663       -0.71111       -2.45960
H          4.08466       -0.21520       -2.64094
H          1.73271        1.24436       -3.60618
H          3.33470        3.16429       -4.15931
H          4.68376        2.28299       -3.31664
H          2.00879        3.19807       -2.03046
H          2.84077        2.35524       -0.04426
