15

O          1.72505        0.18248        0.92493
C          2.45163        0.11201       -0.05907
N          3.18156        1.14682       -0.58021
C          3.22366        2.46089        0.01465
C          3.18458        3.38851       -1.17967
C          3.91441        2.60457       -2.26368
C          3.61621        1.17119       -1.90136
O          3.79689        0.20981       -2.62969
H          2.52437       -0.81131       -0.66233
H          4.17622        2.55117        0.55259
H          2.40282        2.62735        0.71593
H          3.63485        4.36363       -0.97931
H          2.14211        3.55049       -1.48233
H          4.99416        2.77164       -2.22998
H          3.52111        2.84018       -3.25667
