15

O          1.20562       -0.13998       -0.30895
N          2.58565        0.03223       -0.15714
C          2.94786        1.18767       -0.60647
C          2.11862        2.27172       -1.24815
C          2.90458        3.55040       -0.91785
C          4.33012        3.11424       -0.76964
O          4.67410        2.56079        0.50306
C          4.35157        1.62571       -0.53496
H          1.03877       -0.95000        0.20882
H          1.09237        2.30841       -0.87948
H          2.11150        2.09228       -2.33060
H          2.54343        3.97789        0.02611
H          2.78097        4.30460       -1.70089
H          5.07453        3.59779       -1.38033
H          5.13034        1.02571       -0.98286
