14

N          1.93605       -1.18565       -0.67620
C          2.39801       -0.02754       -0.14437
N          2.20690        1.11694       -0.70313
C          3.20193       -0.09891        1.16609
C          2.75240        0.75547        2.35247
O          2.48357       -0.44275        3.13179
C          2.76766       -1.24576        2.07848
O          2.69460       -2.45297        1.99962
H          1.59539       -1.20988       -1.62850
H          2.23019       -2.08671       -0.30177
H          1.65658        0.99643       -1.55758
H          4.28431       -0.09188        0.99698
H          1.84172        1.34549        2.21005
H          3.52997        1.37349        2.81029
