14

C          0.93101       -0.00720        0.16769
C          2.42122        0.04925        0.12440
C          3.15512        1.16943        0.03985
S          4.86478        0.83929        0.00309
C          4.57866       -0.90652        0.11046
O          5.45437       -1.75523        0.11825
N          3.19253       -1.09281        0.16144
N          2.62327       -2.36802        0.29363
H          0.49206        0.99541        0.15340
H          0.58523       -0.50754        1.07693
H          0.54267       -0.54901       -0.70097
H          2.76345        2.17643       -0.00243
H          3.39756       -3.04508        0.26705
H          2.08004       -2.56116       -0.54521
