18

O          1.53527       -2.68653       -0.53061
C          2.90808       -2.44091       -0.83867
C          3.14546       -0.93510       -0.96457
N          4.53659       -0.55868       -1.19818
C          5.35684       -0.41178       -0.00021
C          6.73014       -0.26874       -0.62922
C          6.46626       -0.93447       -1.94050
N          5.21909       -1.10009       -2.23705
H          1.40358       -3.64808       -0.59250
H          3.14473       -2.95188       -1.77797
H          3.51387       -2.87403       -0.03710
H          2.75406       -0.42126       -0.07699
H          2.53427       -0.55583       -1.79465
H          5.32249       -1.30852        0.62883
H          5.08645        0.46335        0.59696
H          7.51715       -0.78287       -0.07416
H          7.01315        0.77197       -0.81523
H          7.29568       -1.22707       -2.60027
