18

C          0.98089       -1.08349       -0.78779
C          2.47962       -1.04729       -1.00087
O          3.14166       -1.10807        0.27037
N          4.53124       -1.30595        0.02044
C          5.24570       -0.03267       -0.03645
C          5.06383       -2.45080        0.58697
N          4.14804       -3.40239        0.93031
S          6.68281       -2.78415        0.81941
H          0.45464       -0.96877       -1.74190
H          0.66367       -0.28362       -0.11183
H          0.67849       -2.03176       -0.33091
H          2.75349       -0.11053       -1.49997
H          2.78606       -1.89117       -1.62933
H          4.56143        0.77880       -0.29848
H          6.01813       -0.11246       -0.80616
H          5.71493        0.18266        0.92696
H          3.19392       -3.08953        1.05774
H          4.46486       -4.20356        1.46019
