19

O          1.11752        0.43129        0.38426
C          2.47381       -0.05169        0.35256
C          2.70080       -1.37066       -0.50125
C          4.13463       -0.80508       -0.71721
C          5.09594       -0.39074       -1.80666
C          5.54250        1.00516       -1.30089
N          4.50785        1.42655       -0.32374
C          3.39512        0.57139       -0.70229
H          0.64807       -0.19140        0.96476
H          2.89182       -0.09900        1.36635
H          2.08840       -1.46004       -1.40536
H          2.64685       -2.30182        0.06874
H          4.73780       -1.04896        0.17764
H          4.60208       -0.32010       -2.78353
H          5.94408       -1.07625       -1.89401
H          5.61839        1.70773       -2.13753
H          6.51307        0.95031       -0.79788
H          4.32714        2.42536       -0.41332
H          2.87814        0.87458       -1.62588
