17

O          0.92937        0.08567        0.26701
C          2.36717        0.07729        0.12311
C          3.02256       -0.99992       -0.80466
C          2.26592       -1.29853       -2.11840
C          1.92837        0.00700       -2.79774
C          2.30959        1.15877       -2.21854
C          3.03054        1.05066       -0.91212
N          4.12635        0.01427       -1.04365
H          0.72112       -0.73541        0.74231
H          2.83296        0.13035        1.11741
H          3.35820       -1.90864       -0.29441
H          1.34696       -1.85483       -1.90543
H          2.88756       -1.90933       -2.78234
H          1.39438       -0.00349       -3.74088
H          2.10169        2.12994       -2.64943
H          3.36527        2.01516       -0.52025
H          4.80858        0.06224       -0.28776
