19

O          0.95122       -0.75145       -0.72608
N          2.32491       -1.00262       -0.63595
C          2.96667       -0.00213       -1.14522
C          4.46914        0.01238       -1.16762
C          4.97928        0.09567       -2.60301
C          6.50864        0.09981       -2.63720
C          7.03282        0.19875       -4.04006
C          7.81950        1.19034       -4.47679
H          0.56688       -1.54200       -0.30243
H          2.44496        0.87615       -1.56555
H          4.85157       -0.88700       -0.67314
H          4.79992        0.88685       -0.59769
H          4.58909        1.00313       -3.08212
H          4.59127       -0.75206       -3.18262
H          6.89013       -0.82537       -2.18936
H          6.88637        0.92873       -2.02581
H          6.76386       -0.60193       -4.72648
H          8.12546        2.00583       -3.82850
H          8.18124        1.20300       -5.50048
