17

N          1.17225        0.05098       -0.17809
C          2.62030       -0.08418        0.08928
C          3.12291        1.01161        1.04552
O          4.51270        0.89605        1.37644
C          4.90488       -0.36691        1.72475
C          4.23601       -1.48744        1.44603
C          2.97045       -1.48735        0.65660
O          3.13291       -2.43568       -0.39937
H          0.96703        0.99457       -0.49706
H          0.64605       -0.09275        0.68249
H          3.13144        0.03839       -0.87372
H          2.54605        1.02376        1.97824
H          2.99271        1.99466        0.57621
H          5.85601       -0.35024        2.24430
H          4.61632       -2.44684        1.78595
H          2.16474       -1.85407        1.30130
H          3.77969       -2.06709       -1.02145
