18

C          0.81611        0.00653        0.61802
C          2.07594       -0.03666        0.17118
C          2.89973        1.15342       -0.31717
C          4.07398        0.41460       -1.01178
C          3.37969       -0.85063       -1.53726
C          2.88567       -1.28129       -0.15320
C          4.20694       -1.22694        0.58857
C          4.93046       -0.22614        0.06070
H          0.29185        0.95104        0.72633
H          0.27081       -0.90119        0.85507
H          3.24057        1.78036        0.51196
H          2.32854        1.75108       -1.03548
H          4.62278        0.98825       -1.75785
H          4.06965       -1.57123       -1.99516
H          2.57031       -0.63899       -2.24774
H          2.36616       -2.23802       -0.12524
H          4.49456       -1.86651        1.40865
H          5.91163        0.10384        0.36795
