16

O          1.16525        0.00812       -0.19724
N          2.52553       -0.24787       -0.00364
C          3.20468       -0.60460       -1.15313
N          2.55361       -0.99135       -2.21139
C          4.70139       -0.56689       -1.17516
C          5.39682       -1.02862       -2.22218
C          6.84546       -1.04464       -2.25797
C          7.53593       -1.52193       -3.29901
H          0.83252        0.20828        0.69758
H          3.00832        0.36149        0.65233
H          1.55943       -0.92275       -1.93668
H          5.19070       -0.17952       -0.29283
H          4.87247       -1.42402       -3.09069
H          7.38253       -0.65945       -1.39494
H          7.04680       -1.91700       -4.18233
H          8.62359       -1.51616       -3.29070
