17

C          0.80084       -0.00691        0.03482
C          2.28593        0.00283        0.03213
C          3.12145        1.10520        0.02793
N          2.86078        2.42187        0.02380
N          4.41770        0.66221        0.02560
C          4.44091       -0.70752        0.02805
C          3.13909       -1.13256        0.03187
N          2.76571       -2.41687        0.03437
H          0.38488        1.00502        0.03592
H          0.42496       -0.52474        0.92328
H          0.42185       -0.52423       -0.85256
H          1.90776        2.77201        0.05755
H          3.57290        3.14339        0.06035
H          5.23008        1.25964        0.02004
H          5.37743       -1.24554        0.02576
H          3.43474       -3.17841        0.04069
H          1.79397       -2.70410        0.04417
