17

N          1.52852        0.89749        0.60512
C          2.44792       -0.09116        0.05927
C          3.11704       -0.81387        1.17883
C          4.42918       -0.88835        1.42283
O          4.91310       -1.55827        2.54243
C          6.33131       -1.29203        2.57954
C          6.63767       -0.54749        1.33344
C          5.50548       -0.32144        0.67308
H          1.12469        1.43452       -0.15941
H          2.05940        1.56276        1.16668
H          3.16169        0.41090       -0.60192
H          1.88824       -0.80692       -0.55043
H          2.44758       -1.32252        1.87006
H          6.87028       -2.24230        2.62936
H          6.55400       -0.69369        3.46884
H          7.62275       -0.23501        1.02641
H          5.41779        0.20282       -0.26418
