18

N          2.61011       -1.33354        0.62077
C          2.45808       -0.05948        0.16005
N          1.71197        0.78677        0.79446
C          3.18885        0.35927       -1.11665
C          2.73422        1.73654       -1.61219
O          3.01731        2.75477       -0.65757
C          4.70095        0.34006       -0.89149
O          5.15842       -0.99130       -0.64033
H          1.88826       -1.70579        1.22487
H          2.96563       -2.01515       -0.04891
H          1.31810        0.33575        1.62674
H          2.93307       -0.38985       -1.87869
H          1.65893        1.75020       -1.82011
H          3.25484        2.00067       -2.53940
H          2.49076        2.49572        0.13729
H          5.00897        0.97556       -0.05352
H          5.22222        0.68639       -1.79064
H          5.01091       -1.14681        0.31159
