19

N          2.91582       -1.14199       -0.92083
C          2.49221       -0.08393       -0.00702
C          3.00757       -0.37443        1.41319
C          2.53326        0.66138        2.43796
C          3.04466        0.34583        3.83688
O          2.59692        1.34230        4.74575
C          3.00134        1.20003       -0.51462
C          3.40853        2.25647       -0.91594
H          2.59179       -2.04289       -0.57715
H          3.93363       -1.18630       -0.93267
H          1.39650       -0.06040        0.00285
H          4.10556       -0.40875        1.41949
H          2.65808       -1.36635        1.72966
H          1.43728        0.70690        2.45221
H          2.87187        1.66633        2.15980
H          4.13857        0.31691        3.86581
H          2.66569       -0.62101        4.18221
H          2.95935        2.19503        4.44892
H          3.76192        3.19787       -1.26878
