14

C          1.02869        0.26256       -0.06253
C          2.47695       -0.05973       -0.06867
N          3.44660        0.82698       -0.08953
N          4.69225        0.23321       -0.09363
C          4.64017       -1.08699       -0.07603
S          3.01408       -1.68788       -0.05017
C          5.72512       -2.00832       -0.07699
C          6.99723       -1.58875       -0.10105
H          0.87621        1.34647       -0.06400
H          0.54213       -0.14441        0.82958
H          0.53524       -0.14784       -0.94930
H          5.51525       -3.07349       -0.05881
H          7.25619       -0.53295       -0.12014
H          7.81524       -2.30171       -0.10252
