16

O          1.31428        0.01238        0.97361
C          2.58986       -0.04590        0.34940
C          2.81961       -1.44771       -0.22041
C          2.41272       -1.33198       -1.66675
C          3.36115       -0.75253       -2.67986
N          2.35069        0.09682       -2.06184
C          2.68020        0.80701       -0.92134
N          3.03096        2.04983       -0.89813
H          0.65605       -0.32689        0.34284
H          3.35269        0.23815        1.08146
H          2.23529       -2.21408        0.29544
H          3.87989       -1.71393       -0.15807
H          1.53344       -1.88509       -1.96050
H          3.16827       -0.94303       -3.72751
H          4.38032       -0.51101       -2.41267
H          3.02012        2.38952       -1.86437
