12

O          1.29671        0.19428        0.96367
C          2.30686       -0.01634        0.31907
N          2.71241       -1.17325       -0.26466
C          3.96877       -1.04508       -0.80124
S          4.86203       -2.29896       -1.40495
N          4.40091        0.28679       -0.68560
C          3.73686        1.37472       -1.32801
C          3.36923        0.98747        0.06465
H          2.21675       -2.04547       -0.17429
H          3.09392        1.10290       -2.15495
H          4.37113        2.23702       -1.48152
H          3.75469        1.54263        0.90815
