18

O          0.97426       -0.11755        0.04475
C          2.39357       -0.05504       -0.08336
C          2.93838       -1.42307       -0.47953
C          2.48386       -1.80005       -1.88284
N          2.80740       -0.75312       -2.83536
C          2.59780        0.56268       -2.51843
N          2.31055        1.44126       -3.41884
C          2.77950        1.02348       -1.08796
H          0.77124       -0.60430        0.86100
H          2.78704        0.22750        0.90164
H          2.58610       -2.18807        0.22236
H          4.03414       -1.40809       -0.43546
H          1.40312       -1.98136       -1.90172
H          2.97409       -2.72893       -2.19171
H          2.57809       -1.00324       -3.78989
H          2.23596        0.99465       -4.33429
H          2.19367        1.93499       -0.92619
H          3.84117        1.27379       -0.97299
