18

C          1.00772       -0.09139        0.12462
O          2.41730        0.11567        0.12965
C          3.12711       -1.03433        0.35125
C          4.46988       -1.08961        0.30529
C          5.29537        0.13300       -0.01456
N          5.20286       -2.25109        0.51199
C          5.12449       -3.13930        1.54672
N          4.41427       -3.06947        2.61587
H          0.52538        0.87214       -0.06326
H          0.66690       -0.46423        1.09562
H          0.71739       -0.78195       -0.67513
H          2.52565       -1.91502        0.54290
H          4.69004        1.02659       -0.18770
H          5.90504       -0.03581       -0.90738
H          5.96477        0.34866        0.82698
H          6.06547       -2.29199       -0.02354
H          5.80928       -3.99463        1.41490
H          3.88919       -2.18960        2.59953
