15

O          2.05264       -2.65799        0.97062
C          2.63151       -1.69561        0.47363
C          3.19261       -0.55004        1.28772
N          4.62092       -0.41236        0.98184
C          5.21244        0.70734        1.74817
C          6.35474       -0.27378        2.07873
O          7.48395       -0.17217        2.50612
C          5.42144       -1.43905        1.69429
H          2.74606       -1.60622       -0.62106
H          2.98820       -0.72279        2.35108
H          2.65305        0.35218        0.97844
H          4.66919        1.04034        2.63900
H          5.50921        1.56519        1.14111
H          4.96076       -1.91257        2.56847
H          5.87292       -2.19373        1.04849
