16

C          1.08701       -0.10457       -0.05799
C          2.58030       -0.10008       -0.04233
C          3.31572       -0.67236       -1.00751
S          5.05317       -0.64193       -0.93590
O          5.49822       -0.49040        0.43737
O          5.55257       -1.73094       -1.75679
C          5.43122        0.88117       -1.82274
O          5.00624        0.92400       -3.19555
H          0.70433        0.42341        0.82129
H          0.69951       -1.12756       -0.02896
H          0.70319        0.40498       -0.94716
H          3.05849        0.38297        0.80814
H          2.87405       -1.17098       -1.85949
H          6.51912        0.99933       -1.80087
H          4.97658        1.71597       -1.28280
H          5.30776        0.08277       -3.59139
