18

N          1.20348       -0.14596        0.55190
N          2.45637       -0.10786       -0.11980
C          3.26369       -1.31737       -0.04325
C          4.32097       -1.34799       -1.13102
C          5.17885       -0.09877       -1.01628
C          4.33112        1.15997       -1.13420
C          3.01638        1.14939       -0.36612
O          2.42527        2.20167       -0.11725
H          0.57680       -0.74558        0.01307
H          0.80267        0.79813        0.46795
H          2.60766       -2.19029       -0.13501
H          3.73382       -1.33914        0.94745
H          3.84564       -1.38557       -2.11873
H          4.94043       -2.24485       -1.02747
H          5.94544       -0.10078       -1.79897
H          5.70512       -0.10278       -0.05394
H          4.07324        1.32726       -2.18680
H          4.92135        2.01901       -0.79532
