19

N          0.82792       -0.04232       -0.01644
C          2.26580       -0.01473        0.18371
C          2.97368       -1.27522       -0.32189
C          4.43367       -0.84780       -0.45194
C          5.06335       -0.74152       -1.84853
O          5.09024        0.70461       -1.77978
C          4.42077        0.68609       -0.50149
C          2.95826        1.09913       -0.59474
H          0.42786       -0.85632        0.44934
H          0.61041       -0.14902       -1.00715
H          2.47502        0.11074        1.25400
H          2.57338       -1.59732       -1.29150
H          2.85596       -2.10606        0.38091
H          5.09809       -1.25933        0.31562
H          4.44901       -1.08460       -2.68597
H          6.07079       -1.15578       -1.93566
H          5.00310        1.17581        0.28535
H          2.61883        1.12115       -1.63920
H          2.78116        2.08725       -0.15811
