13

N          1.06126        0.07183        0.02195
C          2.41949        0.04087       -0.00455
N          3.15078        0.84868        0.68752
C          3.11402       -0.99485       -0.89184
O          2.39511       -1.74954       -1.53838
C          4.61508       -0.97748       -0.87696
C          5.17627       -2.00299       -1.75552
N          5.66925       -2.80132       -2.43945
H          0.52822        0.72211        0.57909
H          0.55193       -0.59765       -0.55155
H          2.54031        1.47354        1.22283
H          4.95747       -1.14956        0.14882
H          4.95747        0.00974       -1.20440
