12

N          3.23922       -0.44075        1.09576
C          2.56198        0.05979        0.04195
S          0.90128        0.06981        0.02084
N          3.28287        0.55651       -1.00381
C          4.65777        0.61093       -1.11839
O          5.45748        0.21313       -0.28088
C          5.16618        1.19164       -2.34099
C          5.65088        1.66364       -3.33471
H          2.75131       -0.82094        1.89619
H          4.25815       -0.44603        1.10688
H          2.73475        0.92075       -1.77067
H          6.13342        2.07134       -4.19307
