17

O          1.02599        0.22938        0.10190
C          2.34606       -0.05845        0.01191
O          2.85934       -0.93525        0.68973
C          3.06283        0.77051       -1.02635
C          3.00244        2.26119       -0.74349
C          4.18593        2.80019       -1.52025
N          5.20949        1.75631       -1.47577
C          4.56218        0.50293       -1.05070
H          0.71980        0.91176       -0.52393
H          2.63469        0.54578       -2.01134
H          3.11669        2.46391        0.32873
H          2.06056        2.71076       -1.07351
H          4.54906        3.74843       -1.11235
H          3.90627        2.97054       -2.56620
H          5.92680        2.00262       -0.79112
H          4.95199        0.21370       -0.06804
H          4.80739       -0.30183       -1.75191
