13

C          2.72375        1.14405        0.48297
C          2.28917       -0.00811       -0.03993
C          2.99535       -0.77913       -1.01869
C          3.82669       -0.41305       -1.99079
O          4.30746       -1.40734       -2.80999
N          3.70077       -2.55867       -2.26423
C          2.85057       -2.22816       -1.24142
O          2.10955       -2.98095       -0.63228
H          2.13638        1.66463        1.23384
H          3.67223        1.59090        0.20096
H          1.34251       -0.42539        0.30161
H          4.17824        0.57496       -2.23462
H          3.75133       -3.44676       -2.73819
