17

C          0.83880       -0.11429        0.13377
C          2.36535       -0.02010        0.09896
C          2.81649        1.34010       -0.47165
C          3.69043        1.27266       -1.69844
N          4.12458        2.34117       -2.28630
N          4.00928        0.03973       -2.14943
C          3.61010       -1.12301       -1.59030
N          2.86007       -1.24642       -0.55998
H          0.40472        0.72946        0.68053
H          0.51899       -1.03671        0.63120
H          0.42069       -0.12250       -0.87872
H          2.71044       -0.06473        1.13961
H          3.38411        1.87835        0.29835
H          1.95522        1.97590       -0.71175
H          3.78493        3.17767       -1.79724
H          4.60669        0.02293       -2.96514
H          3.99510       -2.01449       -2.11202
