18

O          1.73205        0.69655       -0.39206
C          2.85510       -0.19707       -0.42478
C          2.51139       -1.43616       -1.21200
C          1.29102       -2.25758       -0.87849
N          1.34295       -1.46662       -2.10228
C          4.05132        0.51603       -1.00036
C          3.98903        1.20782       -2.33660
N          4.07337        1.98126       -1.09887
H          1.14576        0.37262        0.31256
H          3.08687       -0.47627        0.60945
H          3.38644       -1.97329       -1.55927
H          0.59921       -1.92293       -0.11801
H          1.35711       -3.33207       -1.00357
H          0.83936       -0.57786       -2.00562
H          4.98746        0.04636       -0.72021
H          3.04758        1.24887       -2.87024
H          4.87905        1.19571       -2.95310
H          3.14164        2.33314       -0.84642
