16

O          1.24910        2.62266        0.24590
N          2.50815        2.33013        0.77946
C          3.05003        1.18042        0.26705
N          2.41037        0.18657       -0.23999
C          4.52512        1.10670        0.33625
C          5.34504        0.43478       -0.73981
C          5.32372        1.92870       -0.64908
O          6.48645        2.57601       -0.11291
H          0.76513        2.99983        1.00516
H          3.14429        3.12800        0.81294
H          1.41756        0.45394       -0.20940
H          4.90953        1.01127        1.34649
H          4.81338       -0.03334       -1.56230
H          6.23676       -0.09987       -0.43969
H          4.78517        2.45198       -1.43466
H          7.04356        1.96983        0.40512
