18

O          0.97281       -0.00339        0.12437
C          2.39762        0.06575        0.07443
C          2.86996        1.47014        0.50743
N          2.36646        2.48250       -0.42346
C          2.56980        3.80419       -0.18943
N          2.55343        4.72190       -1.08501
C          2.91992       -1.00616        0.98243
C          3.75389       -1.98526        0.60611
H          0.64317        0.86758       -0.16617
H          2.69601       -0.12078       -0.96408
H          3.96454        1.51327        0.53199
H          2.49037        1.69715        1.51170
H          2.38848        2.21145       -1.40112
H          2.76295        4.05726        0.86775
H          2.35317        4.32049       -2.00227
H          2.57165       -0.98153        2.01310
H          4.11609       -2.07227       -0.41365
H          4.07958       -2.73864        1.31770
