11

O          2.92317        1.12470       -0.01489
N          2.28452        0.06299        0.05227
O          1.05834       -0.03182        0.19446
C          3.05207       -1.15936       -0.04550
C          4.41721       -1.28505       -0.20660
N          4.64233       -2.63498       -0.24124
C          3.43369       -3.26239       -0.10311
N          2.44900       -2.40046        0.01772
H          5.21116       -0.55644       -0.29538
H          5.53741       -3.09480       -0.34908
H          3.33679       -4.34091       -0.09822
