17

O          1.15617        0.13658        0.04937
C          2.35826        0.05772       -0.16677
C          3.06621       -1.24177       -0.28909
C          4.38306       -1.24784       -0.51428
N          5.11460       -2.40153       -0.61173
C          4.49700       -3.70182       -0.82645
C          3.09032       -3.80146       -0.23018
C          2.27472       -2.50153       -0.15281
H          2.98206        0.95952       -0.28820
H          4.96935       -0.33880       -0.62655
H          6.03323       -2.28997       -1.04217
H          5.13244       -4.46685       -0.36379
H          4.47151       -3.91597       -1.89862
H          3.16372       -4.22306        0.77681
H          2.51977       -4.54114       -0.81015
H          1.74824       -2.49034        0.81292
H          1.49590       -2.51939       -0.92439
