20

C          0.87250        0.01076        0.13400
C          2.37243       -0.02531       -0.12688
C          2.67965       -0.05003       -1.62688
C          3.22053        0.99197        0.69137
N          4.26024       -0.07421        0.81303
C          3.15553       -1.07463        0.71176
N          4.98113       -0.08639        1.95340
C          6.17019       -0.54611        1.74985
H          0.41440        0.88501       -0.34066
H          0.64752        0.05788        1.20500
H          0.38661       -0.88417       -0.26801
H          2.25509        0.82849       -2.12421
H          2.25617       -0.94511       -2.09460
H          3.75698       -0.05184       -1.82835
H          2.77521        1.30012        1.64728
H          3.54611        1.88858        0.15547
H          2.69292       -1.33297        1.67426
H          3.42490       -2.00088        0.19600
H          6.88263       -0.61233        2.58617
H          6.53384       -0.88749        0.76255
