21

C          0.93404        0.87664        0.20085
C          2.13190       -0.02472        0.01317
C          3.11841       -0.27086        1.17147
N          4.14395       -0.58753        0.13774
C          3.41417        0.33858       -0.79540
C          4.19004        1.63811       -0.82464
C          3.66959        2.95984       -1.30964
C          4.08441        2.79782        0.12703
H          0.30165        0.49969        1.01489
H          0.31775        0.87846       -0.70568
H          1.20524        1.90545        0.43372
H          1.72256       -0.98964       -0.33728
H          3.36365        0.60404        1.78472
H          2.87541       -1.09977        1.84129
H          4.10063       -1.55868       -0.17421
H          3.35719       -0.04078       -1.82475
H          5.19603        1.39091       -1.16032
H          2.61527        3.06134       -1.52157
H          4.31096        3.55133       -1.96010
H          3.30732        2.81418        0.87832
H          5.01228        3.25979        0.44878
