16

N          1.32220        0.06208       -0.78980
C          2.45112        0.12776       -0.14980
C          3.03518       -1.11952        0.47710
C          4.20611       -0.88235        1.40715
O          3.90721       -0.02097        2.50866
C          3.95380        1.30830        2.19651
C          3.64661        1.89301        1.03394
N          3.09125        1.33526       -0.09566
H          0.93571       -0.88627       -0.72817
H          3.37142       -1.76122       -0.34730
H          2.23231       -1.64955        1.00044
H          5.09699       -0.52539        0.87821
H          4.48688       -1.84489        1.85541
H          4.25049        1.87791        3.06717
H          3.76372        2.97096        0.93474
H          2.60071        2.02055       -0.66694
