16

O          1.39229       -0.69920        0.56924
C          2.65991       -0.06688        0.25645
C          2.77903        1.42538        0.58535
N          2.60240        1.72227       -0.82319
C          3.64219        2.44407       -1.35142
N          4.65778        1.85131       -1.90099
C          4.32830        0.41279       -1.76283
C          2.89974        0.34818       -1.20419
H          0.73352        0.01821        0.54533
H          3.46731       -0.67861        0.67189
H          3.74950        1.72099        1.00011
H          1.97531        1.85010        1.19280
H          3.53936        3.53675       -1.27352
H          5.05056       -0.05628       -1.08540
H          4.39541       -0.07378       -2.73949
H          2.16663       -0.02227       -1.93021
