16

C          3.19095        1.26839        0.42996
N          2.44659        0.12879       -0.06753
C          3.06649       -1.07171       -0.22480
C          4.39151       -1.37366       -0.48799
N          4.71430       -2.71540       -0.56453
C          3.62793       -3.43333       -0.37918
C          3.59562       -4.92019       -0.38282
S          2.18369       -2.54224       -0.11530
H          2.52896        2.13733        0.49497
H          4.01814        1.52985       -0.23773
H          3.58523        1.06833        1.43193
H          1.48361        0.09138        0.25980
H          5.17674       -0.64328       -0.63268
H          4.58343       -5.32266       -0.62951
H          2.88448       -5.29561       -1.12512
H          3.31286       -5.30326        0.60276
