16

C          1.37285        1.03093        0.50737
N          2.43009        0.17896       -0.00203
C          3.12133        0.48635       -1.13587
C          3.27345        1.75009       -1.66411
S          4.21562        1.64881       -3.08569
N          4.44084        0.01077       -3.02887
C          3.82314       -0.47598       -1.94933
C          3.90428       -1.94060       -1.69767
H          1.00221        0.62491        1.45407
H          0.53489        1.06716       -0.19584
H          1.72772        2.04770        0.70191
H          2.29835       -0.80124        0.23640
H          2.90486        2.69868       -1.30565
H          4.45826       -2.45846       -2.48778
H          2.90089       -2.37649       -1.65194
H          4.41123       -2.13532       -0.74725
