14

Cl         0.83790       -0.10887        0.02419
C          2.52081       -0.02561        0.02460
C          3.32861        1.04883        0.06036
C          3.66232        2.46799        0.12371
C          5.13369        1.96162        0.14092
N          4.59512        0.67115        0.02173
C          4.75989       -0.65163        0.04657
C          3.44427       -1.14038        0.01001
H          3.26129        2.97766        1.00557
H          3.31265        3.03853       -0.74331
H          5.73970        2.08980        1.04448
H          5.78269        2.22128       -0.70333
H          5.71937       -1.14803        0.07771
H          3.17057       -2.18779       -0.00214
