20

C          1.27148        0.48951        0.41018
O          2.33233       -0.17842       -0.26642
C          2.97073        0.53695       -1.27437
C          2.18171        1.12793       -2.42811
N          0.72999        1.06490       -2.36075
C          4.31706        0.54094       -1.26608
C          5.22369        1.06089       -2.33745
N          6.08621        2.11142       -1.82574
H          1.25029        0.12500        1.44219
H          0.31205        0.21164       -0.03513
H          1.39712        1.57663        0.43374
H          2.48601        0.61634       -3.34883
H          2.46055        2.18354       -2.52974
H          0.45513        0.08391       -2.39536
H          0.34147        1.49893       -3.19514
H          4.82416        0.06803       -0.42638
H          4.67658        1.43700       -3.20596
H          5.84615        0.23205       -2.69213
H          5.51451        2.91137       -1.55949
H          6.68995        2.43718       -2.57964
