14

C          2.82210       -1.70591       -0.14553
S          2.90954        0.06377       -0.04337
O          3.93182        0.49186       -0.98188
O          1.54990        0.56107       -0.17601
C          3.47560        0.30056        1.60052
C          2.59669        0.46684        2.59950
C          4.97000        0.35079        1.87369
C          6.25191        0.39388        2.10802
H          2.49434       -1.96848       -1.15423
H          2.09622       -2.07205        0.58314
H          3.81062       -2.12918        0.04205
H          1.52422        0.46419        2.42478
H          2.92969        0.63756        3.61836
H          7.30078        0.43714        2.29082
