13

C          0.99646       -0.03609        0.08765
C          2.49071        0.04022        0.08762
C          3.25583        1.19839        0.08557
S          4.93622        0.86591        0.08645
C          4.67100       -0.81910        0.08938
C          3.32989       -1.12649        0.08975
C          2.75241        2.53802        0.08299
N          2.32581        3.61775        0.08088
H          0.52705        0.95173        0.08638
H          0.64778       -0.57265        0.97625
H          0.64786       -0.57493       -0.79959
H          5.50811       -1.50436        0.09069
H          2.96005       -2.14582        0.09149
