15

N          0.80871        0.00664        0.11949
C          2.26845        0.02943       -0.09496
C          2.95010        1.04743        0.83146
O          3.69637       -0.01123        1.50055
C          3.09431       -0.99118        0.76961
O          3.21967       -2.18954        0.87824
C          2.63279        0.01685       -1.53029
C          2.25263        0.99886       -2.35924
H          0.54050       -0.08217        1.10024
H          0.36505       -0.78583       -0.34705
H          2.30954        1.57815        1.54450
H          3.62500        1.76731        0.35661
H          3.22395       -0.81376       -1.90891
H          1.65353        1.83893       -2.01950
H          2.52793        0.97478       -3.40958
