18

O          2.97484        3.43992        0.52237
C          2.60317        2.06192        0.54721
C          3.09955        1.35065       -0.71212
N          4.56780        1.21275       -0.68349
C          5.17763        2.21455       -1.21601
N          6.53355        2.30906       -1.29885
C          7.29086        3.31051       -1.83858
C          8.62417        3.37043       -1.87520
H          2.83324        3.78057        1.42211
H          1.51103        2.01597        0.59605
H          3.02019        1.59875        1.44737
H          2.76242        1.87698       -1.61408
H          2.67332        0.34212       -0.74913
H          4.64932        3.08349       -1.65144
H          7.03426        1.53032       -0.88825
H          6.70387        4.11892       -2.27298
H          9.24293        2.58675       -1.45194
H          9.12692        4.21653       -2.33261
