17

C          1.04933       -0.01477        0.01603
N          2.50135       -0.00980        0.14535
C          3.23597        0.97638       -0.63872
C          3.15302       -0.96107        0.88615
C          4.52184       -1.02151        1.05939
S          5.01581       -2.33263        2.04339
C          3.40125       -2.84461        2.25453
C          2.51108       -2.02906        1.58870
H          0.68357        0.82767       -0.58123
H          0.57400        0.06537        1.00030
H          0.70663       -0.93378       -0.47213
H          2.56910        1.64513       -1.19342
H          3.88292        0.48360       -1.37309
H          3.85121        1.60629        0.01312
H          5.27681       -0.35965        0.66230
H          3.17859       -3.71581        2.85408
H          1.44452       -2.20638        1.61178
