16

C          1.09554        0.05857       -0.04644
O          2.51933        0.07832       -0.04936
N          2.97093       -1.21520        0.24633
C          4.25998       -1.22409        0.24978
N          4.99381       -2.35834        0.50935
C          4.34806       -3.62557        0.79777
C          6.37497       -2.32886        0.50424
O          7.11450       -3.28223        0.72262
H          0.73252        1.06335       -0.27642
H          0.72388       -0.23490        0.94042
H          0.72581       -0.63457       -0.80868
H          4.85929       -0.32014        0.04414
H          3.25784       -3.55469        0.78023
H          4.66848       -3.96790        1.78676
H          4.67064       -4.36293        0.05603
H          6.78710       -1.33192        0.27727
