15

C          1.41521       -0.07928        0.70184
O          2.56756       -0.01491       -0.12650
C          3.13134       -1.20950       -0.45621
C          2.81230       -2.46887       -0.11637
C          3.72321       -3.47591       -0.72376
N          4.60871       -2.64543       -1.46988
C          4.31716       -1.30693       -1.34602
O          4.92198       -0.39216       -1.87071
H          1.07211        0.94334        0.88535
H          1.65056       -0.53576        1.66906
H          0.60587       -0.62334        0.20361
H          1.99338       -2.75271        0.52583
H          3.20193       -4.15752       -1.40007
H          4.28971       -4.03269        0.02654
H          5.38717       -2.95595       -2.03473
