17

N          1.68676        1.28691       -0.25948
C          2.95356        0.58842       -0.61121
C          2.87192       -0.92640       -0.65448
C          2.96791       -0.16966       -1.93800
O          1.76105       -0.05876       -2.71570
C          4.23179        1.34348       -0.19831
C          4.55835        1.72909        1.22274
O          5.17226        0.59924        0.59636
H          1.46258        1.08353        0.71480
H          0.92652        0.85760       -0.79285
H          3.73890       -1.49414       -0.33709
H          1.93228       -1.41540       -0.42874
H          3.90936       -0.23417       -2.47716
H          1.64691        0.86155       -3.01187
H          4.64544        1.99076       -0.96667
H          3.82164        1.54158        1.99229
H          5.16613        2.61138        1.37875
