16

O          1.40160       -0.09583       -0.75018
C          2.45029       -0.22415       -0.13882
N          2.83497       -1.38880        0.48090
C          4.00165       -1.26366        1.32875
C          4.70895       -0.00141        0.80779
N          4.86243        1.10192        1.77606
C          3.55883        1.66208        1.35962
C          3.59569        0.78849        0.09797
H          2.17356       -2.15317        0.53942
H          4.61864       -2.16019        1.22899
H          3.65518       -1.16270        2.36269
H          5.59181       -0.21013        0.19447
H          5.64321        1.72113        1.55722
H          3.56664        2.74170        1.18218
H          2.74835        1.43341        2.06068
H          3.92457        1.31126       -0.80586
