16

C          1.09690        0.11670       -0.00438
O          2.50903        0.00533        0.13071
C          3.19975        0.75581       -0.78656
C          4.53433        0.76421       -0.79137
N          5.27082        1.49367       -1.68651
C          6.62099        1.60239       -1.81613
N          7.40238        0.91768       -0.95623
O          7.12000        2.30755       -2.68726
H          0.63582       -0.51236        0.76291
H          0.76931       -0.24199       -0.98578
H          0.77080        1.14969        0.15594
H          2.59403        1.32089       -1.48238
H          5.06287        0.16894       -0.05636
H          4.77786        2.05074       -2.37486
H          7.05160        0.28590       -0.25795
H          8.40186        0.99194       -1.08054
