14

S          1.59467       -0.53120       -1.02199
C          2.63774        0.07696        0.12986
N          3.13248        1.35816        0.00900
C          3.87038        1.99860        0.97280
C          4.17655        1.34093        2.09837
C          3.76097       -0.04565        2.31170
C          4.34820       -1.11902        1.45042
N          3.01269       -0.65349        1.24547
H          2.85388        1.86766       -0.82233
H          4.16396        3.02383        0.77932
H          4.74807        1.83405        2.87894
H          3.38284       -0.29907        3.29340
H          4.39339       -2.13003        1.82979
H          5.05051       -0.87056        0.66561
