16

O          0.96180        0.07199       -0.13239
C          2.38666       -0.02645       -0.05795
C          2.88433       -1.31940       -0.73960
N          2.42967       -1.34177       -2.12314
C          2.63143       -2.37941       -2.96386
N          2.13215       -2.48403       -4.14244
C          4.40433       -1.31940       -0.73960
C          5.70819       -1.31940       -0.73960
H          0.71267        0.90000        0.31542
H          2.68262       -0.00906        0.99670
H          2.80619        0.86051       -0.54768
H          2.49233       -2.19516       -0.21070
H          1.64351       -0.72788       -2.30905
H          3.29005       -3.17496       -2.57172
H          1.58574       -1.64682       -4.35280
H          6.77398       -1.32436       -0.75258
