19

C          1.04373       -0.10370        0.01864
C          2.57590       -0.01516        0.12969
C          2.98792       -0.08179        1.59954
N          3.18876       -1.11502       -0.63327
N          3.40560       -0.77125       -1.93011
C          3.37046        0.52316       -1.96828
C          3.11347        1.21354       -0.65062
N          4.39431        1.79196       -0.21555
H          0.66354       -1.01925        0.48646
H          0.70541       -0.10205       -1.02408
H          0.57021        0.74892        0.51831
H          2.57527       -0.97348        2.08599
H          2.62367        0.79516        2.14624
H          4.07583       -0.12545        1.72205
H          2.68747       -2.00062       -0.54848
H          3.53488        1.10949       -2.88403
H          2.36602        2.00012       -0.78554
H          5.07496        1.02684       -0.17159
H          4.30600        2.12703        0.74207
