16

O          1.72921       -0.66246       -0.72172
C          2.93379       -0.15759       -0.13683
C          3.86543       -1.13830        0.51237
C          4.21580       -0.55372       -0.82045
N          5.03409        0.64961       -1.01715
C          4.32935        1.72835       -0.53010
N          4.71499        2.95541       -0.57996
C          3.01052        1.32209        0.11826
H          1.04614       -0.80534       -0.04653
H          3.56011       -2.17822        0.53788
H          4.42389       -0.82345        1.38503
H          4.15351       -1.18589       -1.70174
H          6.02150        0.63451       -0.79052
H          5.58936        3.00240       -1.11516
H          2.18260        1.87702       -0.33424
H          3.05916        1.53916        1.19173
