16

C          1.06151       -0.06938        0.06377
O          2.48251       -0.03451        0.10896
C          3.08534        0.77160        1.05348
C          2.42498        1.48953        1.97632
N          4.45618        0.83533        1.08356
C          5.06747        0.64173       -0.03970
N          6.43208        0.71164       -0.20194
O          7.13984        0.54410        0.99471
H          0.76747       -0.73223       -0.75557
H          0.65032        0.92349       -0.14663
H          0.64758       -0.47858        0.99099
H          1.34930        1.51679        2.06300
H          2.98329        2.08744        2.69095
H          4.55741        0.43122       -0.99726
H          6.83012        0.20714       -0.98986
H          6.49141        0.83011        1.67623
