14

N          1.14587       -0.14020        0.36908
C          2.48884       -0.03112        0.11326
C          3.13533        0.80359       -0.72107
C          2.40942        1.76959       -1.60239
N          1.11477        1.84364       -1.71212
O          0.78161        2.85665       -2.61216
C          4.65533        0.80359       -0.72107
C          5.95918        0.80359       -0.72107
H          0.80748       -1.01877        0.74872
H          0.54396        0.30939       -0.32647
H          3.06762       -0.72036        0.72763
H          3.05916        2.43709       -2.18646
H         -0.19354        2.85134       -2.59051
H          7.02460        0.80307       -0.71965
