12

O          3.62996       -5.18002       -1.45229
C          4.16859       -4.08649       -1.63055
N          3.44067       -3.00644       -1.22518
C          3.71376       -1.67913       -1.18248
C          4.84749       -1.09284       -1.54873
O          5.98623       -1.67459       -2.08231
C          6.13186       -2.98714       -2.38323
N          5.38840       -4.01334       -2.21166
H          2.54221       -3.31080       -0.86776
H          2.90703       -1.06737       -0.78566
H          5.00574       -0.02353       -1.46331
H          7.11525       -3.11056       -2.86712
