17

C          1.19311       -0.17620        0.23161
O          2.51251       -0.12207       -0.31900
C          3.11543       -1.30839       -0.49921
N          2.63339       -2.46469       -0.18888
O          3.63485       -3.40819       -0.53048
C          4.54427       -2.75616       -1.42908
C          4.48332       -1.28880       -1.06406
C          4.66441       -0.36857       -2.25294
H          0.87667        0.84867        0.44518
H          1.17940       -0.74153        1.16889
H          0.50128       -0.60931       -0.49665
H          4.21326       -2.95826       -2.45451
H          5.54742       -3.17180       -1.29542
H          5.18715       -1.05114       -0.25946
H          3.89107       -0.53445       -3.01147
H          5.64245       -0.52142       -2.71923
H          4.59429        0.67982       -1.94401
