15

C          1.08567       -0.03396       -0.03534
N          2.52919        0.03506       -0.03511
C          3.18610        1.25932       -0.03630
O          2.70430        2.37981       -0.03769
S          4.92757        0.93870       -0.03541
C          4.65801       -0.77532       -0.03352
C          3.35310       -1.08136       -0.03358
C          2.79739       -2.46601       -0.03218
H          0.64342        0.96639       -0.03690
H          0.74896       -0.56338        0.86091
H          0.74931       -0.56606       -0.93011
H          5.47232       -1.48701       -0.03244
H          3.59453       -3.21726       -0.03096
H          2.18344       -2.63812       -0.92192
H          2.18267       -2.63603        0.85743
