13

O          0.97598        0.11575       -0.12209
N          2.37259        0.04169       -0.21753
C          2.95314        1.12998        0.18317
O          4.32376        1.15293        0.13811
C          5.02901        2.27806        0.59211
C          4.43300        3.37292        1.06598
C          3.00030        3.40958        1.10460
C          2.28580        2.35747        0.68901
H          0.70326       -0.76973       -0.42830
H          6.09520        2.12449        0.50528
H          5.00230        4.22688        1.41646
H          2.51300        4.30526        1.47543
H          1.20402        2.36770        0.70941
