15

O          1.32988        0.34435        0.65858
C          2.36083        0.08186        0.04659
C          2.84583       -1.32738       -0.14972
C          2.90603       -1.64820       -1.63426
N          2.95597       -1.91434       -2.86581
C          3.22063        1.16969       -0.51283
C          2.61360        2.18769       -1.44918
C          3.03603        2.60157       -0.06929
H          2.15710       -2.01970        0.34496
H          3.83391       -1.43849        0.30701
H          4.24320        0.87315       -0.73241
H          1.54936        2.13670       -1.65506
H          3.20955        2.52715       -2.28884
H          2.25537        2.82853        0.64967
H          3.91809        3.22401        0.02744
