17

N          0.97098       -0.07087       -0.13240
C          2.41546       -0.08857       -0.03487
C          3.00777       -1.31656       -0.65799
C          4.02681       -1.00806       -1.47527
C          4.24685        0.46980       -1.54281
O          5.46513        0.76804       -0.88737
C          3.07751        1.04783       -0.78327
C          2.62922        2.30709       -0.90541
H          0.59146       -0.87742        0.35647
H          0.70554       -0.16844       -1.11012
H          2.71349       -0.04990        1.01955
H          2.68616       -2.32405       -0.43726
H          4.63341       -1.71766       -2.01583
H          4.28584        0.82202       -2.57830
H          5.31704        0.63246        0.06296
H          3.14469        3.03078       -1.52899
H          1.73103        2.63250       -0.38869
