15

C          0.93780        0.10499        0.05302
C          2.44789        0.02451       -0.04011
N          3.11674        1.13210        0.72898
S          4.37597        0.11202        1.22543
O          4.52786        0.27111        2.64986
O          5.44608        0.15487        0.25817
C          3.13463       -1.10913        0.77265
O          3.58951       -2.26679        0.01439
H          0.56194        0.97942       -0.48856
H          0.59534        0.17351        1.09084
H          0.48072       -0.78408       -0.39381
H          2.77257        0.04775       -1.08983
H          2.62320        1.49044        1.55085
H          2.57477       -1.43170        1.65728
H          4.34499       -1.93216       -0.51058
