13

C          1.07389       -0.09834       -0.10914
C          2.27361       -0.03787       -0.10820
C          3.74156        0.03539       -0.09909
C          4.26549        0.13442       -1.49373
C          4.49860        1.30639       -2.19388
S          5.10517        0.92661       -3.74789
N          5.08360       -0.71764       -3.54047
C          4.61682       -0.98005       -2.32351
H          0.00929       -0.15230       -0.11390
H          4.15726       -0.85160        0.39321
H          4.06904        0.90313        0.48556
H          4.34450        2.32987       -1.88292
H          4.53746       -2.02378       -2.04480
