14

N          3.55094        0.31904       -1.03221
C          2.46148        0.03487       -0.10968
C          2.86302       -1.10185        0.75475
C          3.52963       -1.02419        1.96411
O          3.72390       -2.25765        2.49682
C          3.18811       -3.14831        1.62358
C          2.64939       -2.49331        0.54256
Cl         1.88064       -3.20104       -0.79507
H          3.26429        1.06298       -1.66553
H          3.71262       -0.50045       -1.61718
H          1.54622       -0.19439       -0.66531
H          2.25935        0.92292        0.49902
H          3.91529       -0.19909        2.54719
H          3.26870       -4.18788        1.90593
