15

C          1.01740       -0.07330        0.06189
C          2.53434        0.07206        0.09506
O          2.99014        0.27362       -1.24455
C          2.97175        1.20671        0.97612
C          3.74300        1.11805        2.11969
S          3.99361        2.67689        2.78846
C          3.07928        3.35151        1.50605
N          2.61370        2.50256        0.61636
H          0.72797       -0.90720       -0.58776
H          0.54016        0.82270       -0.35033
H          0.60862       -0.24950        1.06223
H          2.97485       -0.86607        0.44717
H          2.82729        1.21985       -1.42462
H          4.16405        0.23555        2.58136
H          2.90286        4.41704        1.43759
