16

O          0.94687        0.05335        0.04062
C          2.36562        0.04658       -0.02998
C          3.01031        1.18313        0.80982
N          4.11986        0.56640        1.52647
C          4.11994       -0.78479        1.34708
N          5.04701       -1.57094        1.75762
C          2.93471       -1.21384        0.55910
C          2.48548       -2.47130        0.50773
H          0.63385        0.81849       -0.46938
H          2.67370        0.13069       -1.07874
H          2.29539        1.60915        1.52259
H          3.36899        1.98842        0.16059
H          5.00673        1.05016        1.56890
H          5.73314       -1.02462        2.28309
H          3.00519       -3.26823        1.03086
H          1.58449       -2.71937       -0.04145
