11

O          1.07562        0.01721       -0.02525
C          2.29454       -0.05095       -0.01699
N          3.15345        1.01933       -0.01148
C          4.41765        0.56431       -0.00238
C          4.33083       -0.75632       -0.00259
O          3.01900       -1.23851       -0.01166
C          5.56577        1.37425        0.00591
C          6.55074        2.06080        0.01344
H          2.85314        1.98028       -0.01376
H          5.10040       -1.50686        0.00321
H          7.42919        2.66378        0.02035
