16

N          0.95192        0.11602        0.24096
C          2.42568        0.05049        0.09786
C          2.98217        1.25201       -0.66669
O          4.33468        0.96611       -1.02126
N          4.39368        0.01645       -2.06225
C          3.69974       -1.05165       -1.80617
C          2.89240       -1.27504       -0.54911
O          1.76541       -2.09312       -0.88128
H          0.69985        0.96974        0.74207
H          0.65282       -0.65346        0.84793
H          2.85645        0.07634        1.10774
H          2.97502        2.14604       -0.03395
H          2.40298        1.48123       -1.57015
H          3.73770       -1.88294       -2.52847
H          3.50764       -1.85443        0.14768
H          1.04429       -1.45934       -1.07961
