15

O          2.11286        1.28930       -0.64472
C          2.40481       -0.01191       -0.12428
C          2.92544        0.05755        1.26899
C          3.15297        1.19512        2.01958
O          2.97966        2.47633        1.72692
N          3.63261        0.82547        3.24329
C          3.71850       -0.54027        3.30602
C          3.28788       -1.04452        2.09816
H          1.74227        1.14121       -1.53193
H          3.14666       -0.48136       -0.77887
H          1.48375       -0.60303       -0.15014
H          2.62618        2.47453        0.80919
H          3.87820        1.47631        3.97579
H          4.07668       -1.03149        4.20069
H          3.23889       -2.09455        1.83967
