19

C          1.06393       -0.08632       -0.13324
O          2.45839       -0.02998        0.13052
C          2.84800        0.51444        1.40128
C          2.33443        1.94267        1.60671
C          2.42191       -0.40161        2.55008
C          4.37339        0.48549        1.33768
N          5.10717        1.53451        1.55751
O          6.45652        1.18474        1.43848
H          0.92581       -0.53828       -1.11978
H          0.62457        0.91407       -0.16372
H          0.54406       -0.71070        0.59762
H          1.24496        1.96797        1.71337
H          2.58683        2.57394        0.74752
H          2.76058        2.39933        2.50654
H          1.33549       -0.39524        2.68890
H          2.88144       -0.09745        3.49702
H          2.71018       -1.44084        2.35119
H          4.83699       -0.49259        1.11184
H          6.90569        2.04285        1.55775
