15

N          1.17379       -0.38057       -0.05940
C          2.32116       -0.20071       -0.06357
C          3.73403        0.04630       -0.10684
C          4.61095       -0.66169       -1.17053
C          5.64075       -0.34341       -0.04759
C          5.73141        1.17451        0.03485
C          4.23180        1.48353       -0.00687
O          4.54199       -0.72441        0.90186
H          4.75281       -0.14735       -2.12449
H          4.41048       -1.72418       -1.34039
H          6.52826       -0.97041        0.03433
H          6.26829        1.60919       -0.81339
H          6.19148        1.51077        0.96858
H          3.96184        2.09086       -0.87662
H          3.89854        1.98478        0.90749
