17

C          1.19035        0.08376       -0.01374
C          2.67432        0.00749       -0.02540
C          3.40853       -1.11495       -0.05810
C          4.79685       -0.62948       -0.08844
N          4.84331        0.74138        0.03766
C          3.49544        1.27187       -0.01123
N          5.79895       -1.43399       -0.25856
N          7.01294       -0.82238       -0.25160
H          0.73572       -0.91067       -0.06148
H          0.83290        0.65819       -0.87424
H          0.83950        0.57290        0.90032
H          3.11265       -2.14707       -0.09546
H          5.52503        1.15351       -0.58952
H          3.33423        1.86457       -0.91624
H          3.29132        1.87488        0.87820
H          7.73580       -1.51025       -0.03540
H          7.05201       -0.11072        0.48211
