20

C          1.07197        0.03946       -0.12442
O          2.48762        0.05787        0.02185
C          2.85532        0.21566        1.39598
C          4.38181        0.23446        1.54435
N          4.95728        0.38108        2.89165
C          4.06560        0.52228        4.03181
N          6.31271        0.38862        2.96495
C          6.87716        0.52036        4.11733
H          0.83181       -0.08126       -1.18364
H          0.63917        0.98129        0.22789
H          0.64123       -0.80021        0.43051
H          2.43595       -0.62254        1.96412
H          2.43325        1.15942        1.75993
H          4.77098        1.04223        0.90960
H          4.77313       -0.69068        1.09950
H          3.00067        0.50014        3.79693
H          4.24247        1.47800        4.53727
H          4.23247       -0.29170        4.74590
H          7.97771        0.52469        4.17163
H          6.35117        0.63099        5.07893
