17

N          1.14759        0.10355       -0.02911
C          2.61416        0.09581       -0.07020
C          3.30656       -0.62098       -1.18988
C          3.41977        0.88955       -1.09421
C          2.71334        1.73442       -2.13195
O          3.27190        1.49866       -3.42487
C          4.68977        1.42064       -0.65078
C          5.73322        1.88775       -0.28501
H          0.80563       -0.65790        0.55833
H          0.74424       -0.07096       -0.94999
H          3.06453        0.00427        0.91819
H          2.71915       -1.03321       -2.00270
H          4.17030       -1.22769       -0.93814
H          2.80916        2.80253       -1.90388
H          1.64546        1.51387       -2.20080
H          4.19440        1.80395       -3.38545
H          6.65236        2.31635        0.04362
