15

C          0.86746        0.04342        0.09134
C          2.35332        0.09936        0.06187
C          3.21951        1.18352        0.05534
C          2.83914        2.62326        0.08731
O          2.06872        2.99193       -1.05015
C          4.56893        0.70202        0.02655
N          4.75365       -0.61314        0.00673
S          3.27032       -1.34742        0.03005
H          0.42764        1.04493        0.11429
H          0.51823       -0.49185        0.98070
H          0.48221       -0.46958       -0.79613
H          3.72430        3.26723        0.11810
H          2.24523        2.83643        0.98253
H          2.59172        2.74884       -1.83354
H          5.46046        1.31818        0.01971
