17

N          0.98244       -0.03091        0.09347
C          2.24341       -0.03091        0.09347
C          3.76341       -0.03091        0.09347
C          4.26719       -1.44069       -0.24144
C          4.00072       -1.80285       -1.70289
C          4.49858       -0.70560       -2.63464
O          3.94588        0.56102       -2.28197
C          4.26907        0.96681       -0.94910
H          4.10724        0.26353        1.09151
H          3.80414       -2.18844        0.41541
H          5.34863       -1.48372       -0.06071
H          2.92108       -1.93529       -1.84838
H          4.47684       -2.75717       -1.95053
H          4.19382       -0.92724       -3.66335
H          5.59174       -0.64097       -2.62098
H          3.82263        1.95552       -0.79143
H          5.35708        1.08448       -0.87592
