21

C          0.90565       -0.06759        0.29694
C          2.40345        0.05689        0.03176
C          2.71768        0.03846       -1.46192
C          3.10992        1.15547        0.85532
C          4.11168        0.06866        1.28667
N          3.18846       -0.96240        0.77027
C          5.40711        0.01295        0.56683
C          6.25675        1.04723        0.59577
H          0.36486        0.76786       -0.16136
H          0.67735       -0.05809        1.36876
H          0.50456       -0.99808       -0.12135
H          2.23740        0.88433       -1.96574
H          2.35090       -0.88211       -1.92983
H          3.79010        0.10797       -1.66986
H          2.52351        1.54945        1.69512
H          3.49921        2.00660        0.28837
H          4.26182        0.00912        2.37151
H          2.66797       -1.42448        1.51443
H          5.66156       -0.88683        0.01126
H          6.03611        1.95991        1.13930
H          7.19832        1.00150        0.05663
