18

C          0.79833        0.11077        0.02994
C          2.32663        0.11425        0.05684
C          2.87272        1.38994       -0.55331
C          3.67012        1.17150       -1.79045
N          3.99206        0.03124       -2.29950
N          3.60654       -1.14249       -1.67455
C          2.86704       -1.13041       -0.61294
C          2.52383       -2.46967       -0.00329
H          0.39528        1.02896        0.47126
H          0.39401       -0.72680        0.60824
H          0.41694        0.02190       -0.99318
H          2.63880        0.07467        1.10826
H          3.52346        1.90543        0.16284
H          2.07660        2.10259       -0.80205
H          4.02490        2.07968       -2.30902
H          3.06652       -3.27321       -0.51011
H          1.45265       -2.65900       -0.10472
H          2.79556       -2.46973        1.05521
