15

O          0.97260        0.03199       -0.16608
C          2.18324        0.00671       -0.00943
N          2.89896       -1.06691        0.48127
C          3.39780       -1.95664       -0.55235
C          4.07622       -1.19587       -1.70134
O          4.91888       -0.12017       -1.24744
C          4.27158        1.02585       -0.84571
C          3.04139        1.16722       -0.32539
H          3.69426       -0.75295        1.02338
H          2.56705       -2.55771       -0.93735
H          4.11513       -2.62597       -0.06618
H          3.34047       -0.80686       -2.41717
H          4.71116       -1.89189       -2.26122
H          4.92734        1.87710       -0.99952
H          2.61729        2.14106       -0.11679
