19

O          1.03843       -0.11877       -0.18565
C          2.42794        0.01505        0.13137
C          3.04212       -1.33893        0.54309
N          2.28330       -1.92947        1.67525
C          2.60711       -3.36045        1.62753
C          2.67445       -3.72926        0.15284
C          3.03647       -2.42938       -0.50348
C          3.24194       -2.29948       -1.82149
H          0.72267        0.76826       -0.42719
H          2.51139        0.72810        0.95924
H          2.94575        0.43693       -0.73598
H          4.07614       -1.17529        0.87088
H          1.29587       -1.80096        1.43049
H          1.85941       -3.95538        2.16167
H          3.57492       -3.53111        2.11491
H          1.69673       -4.07182       -0.20403
H          3.42553       -4.50493       -0.02504
H          3.17378       -3.15666       -2.48483
H          3.46490       -1.34058       -2.27616
