14

O          1.21853       -0.16851        0.29203
N          2.59471        0.11958        0.27350
C          3.47204       -0.95053       -0.12642
C          3.77357       -1.31031       -1.55249
C          4.59984       -0.24773       -0.89095
N          4.23793        1.14387       -0.89880
C          2.97341        1.35621       -0.30625
O          2.33184        2.38874       -0.41296
H          1.14829       -0.96964       -0.25195
H          3.75650       -1.62311        0.67302
H          3.07292       -1.01322       -2.32434
H          4.24438       -2.26894       -1.74143
H          5.61968       -0.46093       -0.59603
H          4.58465        1.83014       -1.55373
