15

O          1.29961        0.12158        0.72253
C          2.43294        0.04859        0.25748
C          3.17723       -1.25792        0.13401
C          4.05683       -1.26282       -1.10435
C          4.99741       -0.07065       -1.08080
C          4.22720        1.22013       -0.93649
O          4.58872        2.26680       -1.46540
N          3.10608        1.17310       -0.14801
H          2.44733       -2.07142        0.06798
H          3.77175       -1.40219        1.04250
H          3.42752       -1.21731       -2.00213
H          4.63179       -2.19383       -1.15274
H          5.56677       -0.03495       -2.01609
H          5.70619       -0.14099       -0.24877
H          2.59083        2.03949       -0.07329
