16

C          1.04700        0.27038       -0.01084
N          2.49331        0.22343        0.04686
O          2.92949       -0.84927        0.86405
C          3.21785        0.38260       -1.13050
O          2.72938        0.80519       -2.17947
C          4.68889        0.11462       -1.05133
C          5.46007       -0.45289       -2.21230
N          5.50723        0.97720       -1.93890
H          0.63793        0.13691        0.99469
H          0.67895       -0.51504       -0.67534
H          0.74172        1.24467       -0.40341
H          3.10392       -0.38948        1.70686
H          5.10930       -0.03224       -0.06333
H          4.92834       -0.75967       -3.10626
H          6.37566       -0.99331       -2.00826
H          4.87309        1.47690       -2.57828
