17

O          4.15569       -1.41530        2.53231
N          4.57387       -0.87126        1.31366
C          4.18019        0.36082        1.24038
C          4.47118        1.17794        0.01371
C          5.35983        2.35545        0.28266
C          5.68680        3.26397       -0.87625
C          4.83640        3.76875        0.25179
O          5.46617        4.69336        1.14831
H          4.47114       -2.33881        2.46536
H          3.61033        0.84594        2.05357
H          3.50961        1.49910       -0.40358
H          4.95741        0.53221       -0.72870
H          6.16629        2.11706        0.96747
H          5.19886        3.08514       -1.82874
H          6.70681        3.61595       -0.97221
H          3.78106        3.92439        0.05034
H          6.43813        4.64665        1.11114
