17

C          1.08351       -0.27856        0.10511
N          2.54769       -0.26592       -0.05999
S          3.08901       -1.03377       -1.47570
O          2.75107       -2.43076       -1.30678
O          2.57230       -0.27668       -2.59471
C          4.81592       -0.89522       -1.42375
C          5.40025        0.31236       -1.36764
C          6.87995        0.50926       -1.32154
H          0.82591        0.30427        0.99408
H          0.72650       -1.30086        0.26116
H          0.58152        0.17052       -0.75483
H          3.02329       -0.66009        0.75155
H          5.37480       -1.81951       -1.43944
H          4.78903        1.21366       -1.36785
H          7.42396       -0.44084       -1.33567
H          7.15660        1.04659       -0.40955
H          7.20500        1.10083       -2.18255
