14

C          1.28325       -0.46099       -0.63618
O          2.42771       -0.06079        0.10788
C          3.06680       -1.02949        0.75793
C          4.16335       -1.05530        1.58586
N          4.41033       -2.34253        1.99548
C          3.46060       -3.03411        1.41432
N          3.23960       -4.34758        1.47043
O          2.61010       -2.31178        0.63417
H          0.84376        0.43289       -1.08824
H          0.52942       -0.91649        0.01545
H          1.56232       -1.14763       -1.44271
H          4.77642       -0.22415        1.90149
H          4.01713       -4.91145        1.79028
H          2.70510       -4.75644        0.71536
