15

N          0.98084        0.02200       -0.07188
C          2.31643       -0.08003       -0.04110
C          3.21697        0.95412        0.01016
O          4.48810        0.46827        0.02845
C          4.39040       -0.89386       -0.02397
C          5.66342       -1.64603       -0.02187
O          6.02424       -1.87724        1.33388
C          3.06323       -1.27386       -0.05584
H          0.49518        0.91243       -0.03217
H          0.37024       -0.78894       -0.07177
H          3.12872        2.03031        0.03774
H          6.46564       -1.08552       -0.51110
H          5.55590       -2.61163       -0.52405
H          6.00846       -1.00580        1.76837
H          2.69749       -2.28985       -0.08613
