16

C          2.77000        1.39157        0.01154
O          2.54526       -0.01528       -0.13297
C          3.15889       -0.60448       -1.19539
N          3.86902        0.06180       -2.04352
N          4.48584       -0.58849       -3.10792
C          4.33875       -1.86333       -3.25731
C          3.54146       -2.76873       -2.38060
C          2.89461       -2.07163       -1.21241
H          2.25353        1.72415        0.91645
H          2.35592        1.93513       -0.84327
H          3.83816        1.59929        0.12914
H          4.84542       -2.33639       -4.11534
H          4.20673       -3.56613       -2.03104
H          2.78453       -3.25488       -3.00596
H          3.26374       -2.49895       -0.27261
H          1.81049       -2.23199       -1.23505
