17

O          1.90064       -0.02325       -1.69423
C          2.52517        0.00738       -0.64981
C          2.94213       -1.17748        0.19477
C          3.82811       -0.64367        1.32306
C          5.31559       -0.37744        0.97238
C          5.11465        1.09716        1.35784
C          3.59716        0.88679        1.28818
N          2.95481        1.14510       -0.00097
H          3.47418       -1.90766       -0.42163
H          2.03729       -1.63685        0.60570
H          3.68041       -1.11225        2.30179
H          5.57261       -0.52392       -0.08295
H          6.04180       -0.91839        1.58641
H          5.53574        1.82701        0.66071
H          5.46997        1.33368        2.36756
H          3.02499        1.30071        2.12278
H          2.73883        2.04772       -0.40265
