12

O          0.95611        0.29700       -0.52432
S          2.35113        0.00270       -0.28433
O          3.32125       -0.29700       -1.31467
C          3.00732        1.24556        0.74149
N          3.30748        0.86020        1.95030
N          2.99511       -0.45213        2.27089
C          3.91279       -1.34787        1.56848
C          2.50974       -1.15531        1.06306
H          3.18334        2.26845        0.38225
H          4.14086       -2.27148        2.08749
H          4.75841       -0.92028        1.04226
H          1.76762       -1.92276        1.21239
