19

N          2.89457        0.72340       -1.28514
C          2.45328        0.12209       -0.03755
C          2.91590        0.93094        1.12339
C          3.70308        0.52375        2.12981
C          3.88928        1.59235        3.16224
C          3.37839        2.84764        2.44522
O          4.48485        3.56037        1.88053
C          2.44889        2.34680        1.33063
H          2.54941        0.16289       -2.06231
H          3.91105        0.67177       -1.33309
H          2.83250       -0.90409        0.02433
H          1.35970        0.06410       -0.02660
H          4.12532       -0.46751        2.22582
H          4.94011        1.68116        3.45326
H          3.28127        1.35607        4.04148
H          2.86917        3.53341        3.12910
H          4.88510        2.97347        1.21366
H          2.54733        2.95131        0.42376
H          1.40378        2.34054        1.65832
