14

N          2.70942       -1.12991        0.24098
C          2.30023        0.07758        0.40437
N          3.05915        1.00663        1.04783
C          4.36465        0.74143        1.58544
C          4.77626        2.09490        2.05097
C          3.83114        3.01827        1.84796
C          2.69569        2.33412        1.20570
O          1.65530        2.88448        0.89333
H          1.99510       -1.66025       -0.27355
H          1.32481        0.43599        0.03358
H          5.02383        0.34545        0.80630
H          4.28893        0.02565        2.40999
H          5.73902        2.29465        2.49835
H          3.84323        4.06917        2.07478
