17

N          1.11834       -0.08728       -0.08836
C          2.52499        0.24206        0.03039
C          2.97858        1.63376        0.41854
C          4.49716        1.31659        0.36006
C          4.61900        0.03853        1.23673
C          3.53863       -0.73032        0.51419
C          3.57279       -0.26837       -0.91541
O          4.63009        0.74159       -0.98383
H          0.61205        0.14472        0.76509
H          0.97896       -1.08629       -0.23525
H          2.64677        1.92713        1.41853
H          2.68211        2.37274       -0.33168
H          5.19627        2.13095        0.55048
H          4.38313        0.21545        2.28911
H          5.59044       -0.45218        1.12332
H          3.33379       -1.74781        0.77933
H          3.33888       -0.92512       -1.73666
