17

C          1.11530       -0.02163       -0.18687
O          2.52287        0.07062        0.00236
C          3.25674       -0.43664       -1.03883
C          4.59730       -0.42893       -1.02359
C          5.43203        0.11640        0.09219
C          5.31710       -0.99916       -2.19122
N          6.60949       -1.03534       -2.26520
O          6.99293       -1.62590       -3.47514
H          0.62938        0.40803        0.69439
H          0.80253       -1.06691       -0.27664
H          0.80210        0.55156       -1.06557
H          2.66993       -0.83617       -1.85675
H          4.82640        0.51625        0.91094
H          6.07005        0.92901       -0.27070
H          6.07039       -0.66915        0.51020
H          4.68897       -1.39926       -3.00935
H          7.96659       -1.59791       -3.41796
