16

N          1.06985       -0.31787       -0.17367
C          2.42553       -0.22622        0.02251
C          3.09152       -0.16934        1.17774
C          2.61822       -0.16327        2.58852
N          3.64163        0.55649        3.36573
C          4.93409        0.31185        2.69250
C          4.56220       -0.00524        1.26309
O          5.33817       -0.14068        0.33037
H          0.75835        0.09938       -1.04959
H          0.50344       -0.01935        0.61554
H          2.98094       -0.20213       -0.91751
H          2.53743       -1.19383        2.95443
H          1.64801        0.32745        2.70504
H          3.66974        0.21504        4.32443
H          5.44564       -0.54942        3.13190
H          5.55863        1.20681        2.73694
