14

N          1.03677       -0.05409        0.07564
C          2.29774       -0.05409        0.07564
C          3.81774       -0.05409        0.07564
C          4.33404        1.16689       -0.66784
O          5.64645        0.87826       -1.14748
N          5.59677       -0.07112       -2.18906
C          4.97825       -1.15584       -1.84352
C          4.35797       -1.36479       -0.49328
H          4.13469        0.00650        1.12526
H          4.39727        2.02770        0.00668
H          3.69630        1.46240       -1.51069
H          4.94618       -1.99914       -2.55099
H          5.14163       -1.77305        0.15651
H          3.58260       -2.13395       -0.58292
