14

C          1.09308       -0.08774        0.02125
C          2.58757       -0.02813       -0.07985
C          3.25237        1.19447       -0.15412
C          4.64256        1.20270       -0.26383
C          5.32632       -0.00532       -0.30104
Cl         7.03634       -0.03954       -0.43997
C          4.59248       -1.17694       -0.22439
N          3.24145       -1.21492       -0.11638
H          0.65567        0.90647        0.15744
H          0.80153       -0.70581        0.87621
H          0.67749       -0.52514       -0.89170
H          2.70321        2.13061       -0.12693
H          5.17820        2.14562       -0.32093
H          5.07629       -2.14888       -0.25005
