14

N          1.21924        0.07969        0.48174
C          2.39285        0.02549       -0.02693
N          3.12779       -1.10834       -0.10671
C          4.22109       -1.29488       -1.03088
C          5.01246       -0.02659       -1.14373
O          6.22458       -0.02113       -1.35977
C          4.18138        1.23185       -1.15042
O          2.91334        1.17393       -0.50054
H          0.93523       -0.84106        0.81254
H          2.64413       -1.96094        0.14467
H          3.83919       -1.56356       -2.02090
H          4.87346       -2.09418       -0.66822
H          3.99812        1.50888       -2.19320
H          4.76095        2.03034       -0.67565
