15

N          0.94083       -0.12911        0.16270
C          2.39158       -0.00432        0.03035
C          3.00032       -1.20370       -0.60232
C          3.93906       -0.80307       -1.45286
O          4.10759        0.56114       -1.58283
C          2.95909        1.12288       -0.89586
C          1.95670        1.56783       -1.94830
C          1.09685        1.94951       -2.85109
H          0.71241       -1.00311        0.63065
H          0.52313       -0.18101       -0.76756
H          2.82073        0.10430        1.03376
H          2.77078       -2.23114       -0.36630
H          4.61440       -1.40188       -2.04289
H          3.27919        1.99155       -0.30951
H          0.39835        2.26503       -3.59124
