13

N          1.30505        0.35387       -0.01642
C          2.62977        0.03572       -0.11632
O          3.20764       -0.02156       -1.19186
C          3.28862       -0.22732        1.21617
N          2.45990       -0.37365        2.32983
C          4.63052       -0.31533        1.18527
C          5.39052       -0.63594        2.46199
N          6.02100       -0.90191        3.52113
H          0.83644        0.65297       -0.86099
H          0.93079        0.65150        0.87548
H          1.61548       -0.89578        2.09426
H          2.92382       -0.79567        3.13408
H          5.22196       -0.19768        0.28464
