15

O          1.09469        0.07471        0.37433
C          2.26621        0.05881       -0.00258
C          3.06125       -1.22300       -0.03770
C          4.03346       -1.23556       -1.19926
C          4.81024        0.05216       -1.35376
O          5.96761        0.08851       -1.75498
N          4.09388        1.20446       -1.18104
C          3.07233        1.33148       -0.16429
H          2.37680       -2.07409       -0.11110
H          3.60153       -1.29533        0.91296
H          3.49336       -1.39919       -2.13973
H          4.74329       -2.06023       -1.07260
H          4.65825        2.02830       -1.35684
H          2.41901        2.16197       -0.44263
H          3.56998        1.54824        0.78606
