14

N          0.64730        0.07481       -0.12805
C          2.08560        0.08796        0.16138
C          3.01563       -0.90499       -0.48755
N          2.71299       -1.56931       -1.71130
C          2.56173       -0.68995       -2.75758
O          2.31880       -0.99016       -3.91237
O          2.70956        0.59351       -2.27909
C          3.08011        0.56250       -0.86474
H          0.17428       -0.65929        0.39720
H          0.46938       -0.12499       -1.11307
H          2.31298        0.35369        1.19195
H          3.83587       -1.31851        0.08573
H          2.66387       -2.56625       -1.85552
H          3.93158        1.14577       -0.54010
