18

C          0.95076        0.19169        0.04499
C          2.43018        0.09258       -0.06546
C          3.21228       -0.99814       -0.18429
C          2.84030       -2.43864       -0.22873
N          4.52439       -0.60198       -0.29575
C          4.63907        0.75630       -0.30903
N          5.69514        1.46386       -0.49713
C          3.26345        1.36912       -0.07977
H          0.46186       -0.78514        0.00806
H          0.55267        0.79182       -0.77978
H          0.67091        0.67200        0.98743
H          1.75886       -2.59245       -0.18975
H          3.28422       -2.97084        0.61896
H          3.20825       -2.89746       -1.15215
H          5.26002       -1.25163       -0.52354
H          6.49506        0.84295       -0.64004
H          2.99769        2.03201       -0.90610
H          3.23406        1.89106        0.88004
