15

O          1.10441        0.00211        0.34719
N          2.51383        0.05327        0.34507
C          3.17368       -1.13685        0.53690
O          2.61563       -2.21971        0.70455
C          4.68817       -1.04001        0.57624
C          5.33529       -0.06555       -0.09114
C          5.41090       -2.13278        1.22064
C          6.61202       -2.06110        1.81105
H          0.83207        0.93411        0.30314
H          2.96817        0.95651        0.34602
H          4.83195        0.70657       -0.66073
H          6.42107       -0.03288       -0.13010
H          4.89303       -3.09370        1.21957
H          7.18375       -1.14278        1.87187
H          7.04897       -2.94845        2.26018
