18

N          2.86415        0.23979       -1.29001
C          2.49904       -0.10316        0.09151
C          3.05840        0.90552        1.11388
C          2.57941        0.56696        2.53252
O          1.16083        0.45742        2.62082
O          4.49492        0.84626        1.07391
N          5.02273        2.05954        1.54724
C          6.30573        2.02795        1.42488
H          2.55008       -0.50161       -1.91422
H          3.88245        0.26741       -1.35785
H          2.88521       -1.10814        0.30787
H          1.40750       -0.13919        0.14768
H          2.71057        1.90953        0.83459
H          2.91064        1.33347        3.24244
H          3.01613       -0.37891        2.87020
H          0.77689        1.24652        2.19953
H          6.90945        2.89397        1.73127
H          6.84769        1.15711        1.01587
