14

O          0.91781       -0.22662        0.11106
C          2.33951       -0.10049        0.04126
C          2.73263        1.22099       -0.57757
C          3.63601        1.13404       -1.77437
O          4.06002        2.15298       -2.32091
N          3.97993       -0.10105       -2.23682
N          3.59285       -1.30103       -1.74636
C          2.82747       -1.31020       -0.70280
H          0.56279        0.57442        0.53499
H          2.71612       -0.17434        1.06733
H          3.26183        1.81962        0.17461
H          1.84733        1.79440       -0.87808
H          4.57846       -0.12677       -3.05825
H          2.51815       -2.29010       -0.30071
