19

N          3.25507       -0.09329       -1.03848
C          2.29236        0.05373        0.05685
C          2.86778       -0.48127        1.36413
C          1.94791       -0.47658        2.59225
C          2.41205       -1.93389        2.76199
O          2.90474       -1.94200        1.38784
C          3.46898       -2.15825        3.78202
C          3.16295       -2.35483        5.07026
H          2.82473        0.20283       -1.91176
H          3.46542       -1.08888       -1.14321
H          1.36426       -0.46893       -0.20435
H          2.05346        1.11702        0.16863
H          3.86621       -0.07504        1.57564
H          0.87986       -0.37296        2.37481
H          2.22767        0.23098        3.37650
H          1.58150       -2.64022        2.86922
H          4.50493       -2.15945        3.45228
H          2.13834       -2.36501        5.42693
H          3.94900       -2.51755        5.80327
