15

N          1.05624        0.08387        0.20704
C          2.41483        0.01879        0.03882
C          3.13757       -1.09507       -0.11113
C          4.52554       -0.66063       -0.30893
O          5.44665       -1.45291       -0.44831
C          4.65105        0.83503       -0.35576
C          3.23997        1.21838       -0.00558
C          2.85182        2.46772        0.28368
H          0.56769       -0.76136       -0.07810
H          0.64326        0.91636       -0.20563
H          2.82273       -2.12187       -0.11258
H          4.91664        1.14931       -1.36931
H          5.37259        1.18111        0.38759
H          3.55678        3.29288        0.25480
H          1.83770        2.70123        0.59074
