14

C         -0.00411        0.91931        0.01473
C         -0.75785       -0.36562       -0.02413
C          0.75668       -0.39072       -0.01354
C          1.48632       -0.84544        1.23740
C          1.09621       -0.70919        2.55344
N          1.98403       -1.22388        3.48623
N          3.04771       -1.75471        2.90582
S          2.99679       -1.64761        1.23430
H         -0.02379        1.50236        0.92772
H          0.01317        1.52715       -0.88388
H         -1.25860       -0.63361       -0.94858
H         -1.30515       -0.66515        0.86159
H          1.24965       -0.63902       -0.94984
H          0.18401       -0.24842        2.90488
