17

N          1.06264        0.07529        0.09173
C          2.50190        0.27754       -0.04861
C          2.96719        1.51011        0.67590
C          3.83240        1.48626        1.70712
C          4.29329        2.73680        2.39334
C          3.70613        3.96915        1.77932
C          2.85704        3.88894        0.74843
O          2.45785        2.70531        0.16867
H          0.77164       -0.67308       -0.53325
H          0.59208        0.91887       -0.23607
H          2.75378        0.37285       -1.11107
H          3.01777       -0.61411        0.32426
H          4.21951        0.54281        2.07770
H          5.38596        2.79424        2.33968
H          4.01260        2.69181        3.45131
H          3.98140        4.93437        2.18917
H          2.39516        4.73735        0.26276
