13

O          3.25951        1.25344        0.24555
N          2.50213        0.04815        0.01990
S          2.92145       -1.09604        1.22146
O          2.56712       -0.53262        2.51149
O          2.36128       -2.36062        0.78949
C          4.72097       -1.17828        1.10706
C          5.10854       -1.52297       -0.26764
C          5.41955       -1.80844       -1.39336
H          2.59746        1.97219        0.21810
H          2.64971       -0.34509       -0.91537
H          5.04881       -1.94314        1.81669
H          5.12398       -0.21261        1.42067
H          5.68648       -2.07217       -2.39033
