17

N          0.94732        0.03793        0.01825
C          2.41271        0.05455        0.04276
C          3.00402       -1.16393        0.78149
O          3.41794       -0.74768        2.10135
C          3.46597        0.62635        1.99331
C          2.95183        1.15987        0.88652
C          2.95159        2.56471        0.57118
C          2.50748        3.11135       -0.56740
H          0.62546       -0.68653       -0.61927
H          0.60980        0.92606       -0.34480
H          2.79242        0.08712       -0.98445
H          3.89292       -1.53705        0.25623
H          2.29892       -1.99766        0.87207
H          3.90804        1.12144        2.84206
H          3.36556        3.22752        1.33048
H          2.09183        2.52618       -1.37924
H          2.55911        4.18657       -0.71203
