16

C          0.98503       -0.16627       -0.20158
C          2.44247        0.08854       -0.03135
C          3.05071        1.26822       -0.22813
C          4.45354        0.98814        0.17885
N          5.36654        1.90456        0.16852
N          4.66970       -0.32172        0.60583
C          4.52348       -1.39674       -0.37339
C          3.34022       -0.97578        0.44292
H          0.42921        0.76633       -0.34759
H          0.57741       -0.65638        0.68878
H          0.80352       -0.81148       -1.06622
H          2.65286        2.21240       -0.54802
H          4.98124        2.79184       -0.16491
H          5.06224       -2.28909       -0.08460
H          4.64601       -1.07954       -1.39970
H          3.05178       -1.54680        1.31607
