20

C          0.98427       -0.09623        0.07402
C          2.49725       -0.04968       -0.13072
C          2.86546        0.05025       -1.61118
C          3.21597        0.95656        0.79140
C          4.17523       -0.18157        1.13990
N          3.26129       -1.16346        0.51113
N          2.60944       -1.97904        1.37384
C          2.38973       -3.14035        0.85297
H          0.51553        0.80778       -0.33144
H          0.71055       -0.15003        1.13372
H          0.53869       -0.95806       -0.43544
H          2.42933        0.94970       -2.05864
H          2.48977       -0.81690       -2.16670
H          3.94967        0.09900       -1.76354
H          2.62647        1.30816        1.64607
H          3.67318        1.82223        0.30294
H          4.35706       -0.31711        2.21190
H          5.14511       -0.11465        0.63436
H          1.86890       -3.91136        1.44092
H          2.69499       -3.41962       -0.17172
