14

O          1.23575       -0.69286        0.19545
C          2.07198        0.09745       -0.21055
C          3.05225       -0.31742       -1.25355
N          3.92434        0.49599       -1.76699
N          4.75085       -0.17311       -2.64382
C          4.04258       -0.48068       -3.88238
C          4.15409       -1.51709       -2.78850
C          3.06603       -1.69977       -1.79276
H          2.17854        1.13526        0.14120
H          4.67315       -0.59707       -4.75570
H          3.10087        0.01841       -4.07213
H          4.84086       -2.34369       -2.89210
H          3.32820       -2.41474       -1.00915
H          2.11019       -1.95510       -2.25739
