17

O          1.47166        0.07248        0.48601
C          2.67488        0.09328        0.21495
C          3.41109       -1.17231       -0.30091
N          4.46897       -0.88338       -1.32015
C          4.64445        0.55507       -1.47063
C          5.74916        1.49416       -1.22617
C          4.89258        1.10581       -0.05764
C          3.52131        1.35980        0.45907
H          2.67260       -1.85593       -0.73131
H          3.87756       -1.66036        0.56133
H          4.19079       -1.30849       -2.20654
H          3.87690        1.00477       -2.10705
H          6.76013        1.10376       -1.27295
H          5.66289        2.50942       -1.59614
H          5.44022        0.50797        0.67230
H          3.04896        2.20760       -0.04866
H          3.54939        1.55228        1.53528
