16

C          1.07280       -0.15548        0.05497
N          2.52693       -0.04754        0.11161
C          3.15813        0.59856       -1.04814
C          3.43131       -0.36437       -2.19155
O          2.72289       -1.32384       -2.48675
C          3.27630       -0.63102        1.12120
N          2.58008       -1.13886        2.17262
S          4.94252       -0.73171        1.20513
H          0.67662        0.25892       -0.87422
H          0.65150        0.39997        0.90112
H          0.77681       -1.20663        0.13239
H          4.10905        1.05355       -0.75775
H          2.52155        1.40954       -1.41815
H          4.29169       -0.08826       -2.82713
H          1.58211       -1.27847        2.16876
H          3.10604       -1.60824        2.89978
