13

O          1.10800       -0.04322        0.08942
N          2.50440        0.01531       -0.07483
C          3.06007        0.44108       -1.26981
C          2.48752        0.84725       -2.40975
C          3.15875       -0.39647        1.08085
N          2.60564       -0.79017        2.18582
C          4.61145       -0.42152        1.15115
N          5.77513       -0.41941        1.14523
H          0.74286        0.25855       -0.75753
H          4.14991        0.43370       -1.24910
H          1.41787        0.90303       -2.56630
H          3.11117        1.14628       -3.24902
H          1.59113       -0.73014        2.01734
