14

N          0.90114        0.19388       -0.24599
C          2.23378        0.04605       -0.18553
N          3.06271        1.05535       -0.10197
C          4.36318        0.59185       -0.05449
C          4.51115       -0.77944       -0.09013
C          5.75183       -1.59162       -0.04306
O          6.52491       -1.26298       -1.18937
S          2.96312       -1.50870       -0.18900
H          0.55395        1.10548        0.02993
H          0.32239       -0.58183        0.04851
H          5.17727        1.30451        0.00409
H          5.56223       -2.66970       -0.04780
H          6.33803       -1.35072        0.84915
H          5.98863       -1.49404       -1.96803
