17

N          0.88104        0.00861        0.12054
C          2.32826        0.01266       -0.16099
C          3.12317        1.01275        0.80809
O          2.65928        0.05663        1.91365
C          3.12186       -0.94983        0.84580
C          4.64514       -0.75156        0.69339
C          5.36244        0.00862       -0.38082
C          4.64579        0.80765        0.66458
H          0.40769        0.85560       -0.18765
H          0.71826       -0.03234        1.13304
H          2.60839       -0.00774       -1.21476
H          2.73815        2.02520        0.94159
H          2.73491       -1.95478        1.02292
H          5.17952       -1.22769        1.50445
H          4.96391       -0.01063       -1.38865
H          6.44769        0.00792       -0.35923
H          5.18037        1.31069        1.45926
