12

C          1.45754        0.30005       -0.02798
C          2.92615        0.09537       -0.02981
N          3.85381        1.03242       -0.03363
C          5.08359        0.39735       -0.03400
N          5.16924       -0.93108       -0.03083
S          3.59555       -1.49068       -0.02694
C          6.29167        1.15382       -0.03779
C          7.33832        1.74583       -0.04087
H          1.21314        1.36656       -0.02928
H          1.00423       -0.14886        0.86189
H          1.00169       -0.15162       -0.91516
H          8.28107        2.23754       -0.04355
