17

C          1.12861        0.03954       -0.02321
C          2.60678       -0.02693       -0.04909
C          3.40393       -1.09632       -0.05564
N          4.72268       -0.74131       -0.07820
N          4.87036        0.67926       -0.16314
C          3.47539        1.19231       -0.04966
C          5.85179       -1.51651       -0.03574
N          7.07842       -1.10822       -0.02864
H          0.68301       -0.96052       -0.05706
H          0.75565        0.60224       -0.88415
H          0.78326        0.53355        0.89084
H          3.12166       -2.13890       -0.03995
H          5.19458        0.89265       -1.10946
H          3.24452        1.85342       -0.89152
H          3.36672        1.74876        0.88668
H          5.63820       -2.59863       -0.00730
H          7.02370       -0.08076       -0.02050
