13

S          1.37810       -0.03883        0.82363
C          2.90236       -0.01497        0.20914
N          3.63154        1.11553       -0.08915
C          4.86402        0.77399       -0.76203
C          4.96785       -0.74618       -0.59774
N          3.65693       -1.12170       -0.10409
C          5.29830       -1.43265       -1.91302
N          5.57243       -2.00214       -3.00415
H          3.22372        2.04191       -0.03004
H          5.69345        1.30446       -0.28580
H          4.77768        1.09814       -1.80426
H          5.70356       -1.01883        0.16627
H          3.32453       -2.06801        0.04161
