14

C          0.97138       -0.09791        0.16332
C          2.48819       -0.03337        0.13403
C          2.94614        0.99619       -0.84903
N          3.12887        2.24699       -0.57105
C          3.51475        2.94671       -1.69711
O          3.73231        4.14979       -1.72993
N          3.62204        2.15136       -2.81371
S          3.22439        0.54382       -2.51828
H          0.63475       -0.84914        0.88378
H          0.56694       -0.36161       -0.81975
H          0.54281        0.86857        0.44917
H          2.90411       -1.01252       -0.12502
H          2.86565        0.23697        1.12630
H          3.83850        2.55438       -3.71369
