19

O          0.78504       -0.00133        0.11235
C          2.21036        0.05809       -0.01312
C          2.86212        0.12694        1.37640
C          4.39760        0.08182        1.29944
O          4.81460       -1.16607        0.75196
C          2.30448        1.20704        2.33477
C          2.21928        0.08794        3.37899
N          2.31042       -0.91928        2.30088
H          0.42739        0.00165       -0.79297
H          2.47077        0.93986       -0.60713
H          2.52837       -0.83955       -0.55477
H          4.85886        0.18303        2.28754
H          4.77910        0.88744        0.66530
H          4.35746       -1.84231        1.28943
H          1.32847        1.62266        2.05913
H          2.97649        2.03361        2.58249
H          1.29097        0.05673        3.95737
H          3.06384        0.05589        4.07633
H          1.37905       -1.21225        1.98013
