14

O          1.08736       -0.22516        0.23265
N          2.46120       -0.01624        0.07726
C          2.95792        1.02742       -0.67959
C          2.34101        1.98916       -1.37556
C          3.21798       -0.95759        0.75989
N          4.51010       -1.02560        0.80790
C          5.03345       -2.05082        1.55184
O          4.40622       -2.90385        2.17070
H          0.67256        0.48115       -0.28632
H          4.04800        1.02331       -0.67829
H          1.26553        2.08619       -1.44402
H          2.93204        2.72702       -1.91129
H          2.57203       -1.68518        1.28881
H          6.13716       -2.06684        1.56363
