23

C          1.01814        0.10616        0.02966
O          2.43822        0.08903       -0.02107
C          2.91379       -0.21931       -1.33090
C          4.43769       -0.24438       -1.28873
C          5.03119       -0.59261       -2.65426
C          6.56858       -0.58573       -2.67071
C          7.18220       -1.61690       -1.72456
N          7.01688       -0.85650       -4.03998
H          0.71358        0.35016        1.05075
H          0.61359       -0.87660       -0.23019
H          0.61988        0.86904       -0.64610
H          2.56378        0.54278       -2.03668
H          2.52800       -1.19810       -1.63933
H          4.75246       -0.97012       -0.53017
H          4.80993        0.73020       -0.94993
H          4.66259        0.13309       -3.39137
H          4.65787       -1.57638       -2.96863
H          6.92649        0.41108       -2.38902
H          6.79490       -2.62297       -1.92091
H          6.97263       -1.36933       -0.67947
H          8.27240       -1.64777       -1.83121
H          6.72871       -1.79489       -4.31805
H          8.03613       -0.85762       -4.07089
