16

C          3.18545       -1.03122       -0.58177
N          2.56986        0.02635        0.18103
C          3.16694        1.16826        0.61518
S          2.18063        2.41405        1.13435
N          4.53086        1.19337        0.54376
C          5.31748        2.39313        0.63986
C          6.81339        2.12698        0.59740
C          8.09659        1.89868        0.56098
H          2.40091       -1.68630       -0.96879
H          3.85733       -1.59788        0.07057
H          3.75272       -0.60034       -1.41092
H          1.55446        0.07043        0.18778
H          5.02373        0.33225        0.37255
H          5.08132        2.92001        1.57043
H          5.04984        3.04253       -0.20138
H          9.14617        1.71570        0.53367
