14

O          2.89657       -0.85156        0.59377
C          2.47818       -0.13633       -0.30934
N          3.21378        0.37362       -1.34236
C          4.42863        0.68170       -1.09745
N          5.17637        0.59474        0.03678
C          6.51629        1.05391       -0.15926
C          6.54993        1.27798       -1.65993
O          5.18236        1.21671       -2.09996
H          1.40776        0.12746       -0.34664
H          4.95755       -0.17322        0.66640
H          7.27306        0.33785        0.17377
H          6.66433        1.99563        0.37708
H          7.11607        0.49575       -2.17573
H          6.97373        2.25109       -1.92113
