14

C          1.08462        0.11545       -0.06143
N          2.52935        0.08086       -0.05711
C          3.35474        1.17736       -0.05323
C          4.64616        0.70628       -0.04910
O          5.73136        1.49600       -0.04427
C          4.60924       -0.70412       -0.05077
Cl         5.94838       -1.74537       -0.04700
C          3.28011       -1.06781       -0.05591
H          0.74308        1.15353       -0.06218
H          0.72608       -0.39481        0.83611
H          0.73138       -0.39437       -0.96132
H          2.95435        2.18197       -0.05360
H          5.46696        2.43059       -0.04392
H          2.81571       -2.04470       -0.05861
