16

N          1.57177       -0.38681       -0.87699
C          2.82731        0.00133       -0.22240
C          3.65076       -1.07754        0.43957
C          4.14793       -0.43581       -0.81769
N          5.02022        0.68839       -0.79959
C          4.43226        1.82627       -0.27406
O          4.95767        2.92409       -0.19585
C          3.02410        1.45737        0.18899
H          1.06795       -1.07650       -0.31998
H          0.93604        0.40464       -0.97579
H          3.31138       -2.10529        0.37315
H          4.15300       -0.84943        1.37284
H          4.13633       -1.00380       -1.74031
H          5.94166        0.71962       -1.21411
H          2.30730        2.12015       -0.30548
H          2.95711        1.56820        1.27511
