16

O          1.60779        0.78803        0.87289
C          2.41163       -0.04314        0.05644
C          2.85542       -1.19492        0.89239
C          4.14435       -1.48640        1.13051
N          4.70105       -2.49779        1.88786
O          3.89887       -3.51835        2.41229
C          6.04722       -2.72383        2.08679
N          6.59450       -3.67114        2.77775
H          1.34222        1.54776        0.32773
H          3.25394        0.54318       -0.32826
H          1.81110       -0.40126       -0.78765
H          2.05655       -1.79290        1.31424
H          4.91282       -0.85094        0.69969
H          3.09474       -3.05102        2.69439
H          6.69399       -1.98678        1.58593
H          5.81718       -4.23301        3.14635
