13

O          2.76827        1.61975       -1.92831
C          2.33485        0.54922       -1.53160
N          3.08375       -0.50347       -1.08641
C          4.52694       -0.48132       -1.12857
C          5.03475       -1.30013       -0.01202
C          5.44936       -1.97172        0.89372
C          4.98034       -0.99107       -2.43562
C          5.35760       -1.39744       -3.50199
H          1.25516        0.33083       -1.48738
H          2.63022       -1.38141       -0.88124
H          4.87063        0.55247       -1.00540
H          5.82393       -2.56973        1.69279
H          5.69823       -1.74920       -4.44839
