19

O          0.73675        0.03037        0.15430
C          2.17366        0.03000        0.02924
C          2.95028        1.10015        0.82522
N          3.97224        0.08279        1.17805
C          2.96044       -0.97463        0.90330
C          5.10505        0.04762        0.22968
C          6.08276        1.19177        0.18826
C          6.49136       -0.11600        0.79557
H          0.44277        0.81787       -0.33529
H          2.46200       -0.00812       -1.02899
H          2.40923        1.48332        1.69997
H          3.30045        1.95820        0.24277
H          2.42218       -1.30120        1.80196
H          3.32558       -1.86801        0.38546
H          4.91831       -0.44553       -0.72346
H          5.92603        2.03221        0.85400
H          6.50179        1.45905       -0.77456
H          6.60713       -0.15581        1.87291
H          7.19135       -0.73681        0.25012
