15

O          1.19326       -0.04379       -0.45293
C          2.37988       -0.08930       -0.18446
C          3.16531       -1.28267        0.18725
C          4.41287       -0.88963        0.49827
C          4.62748        0.60123        0.39538
C          3.32211        1.05753       -0.18896
C          3.28351        2.08011       -1.29281
N          2.79789        2.40481        0.04852
H          2.75518       -2.27611        0.18347
H          5.20308       -1.56752        0.79402
H          5.47727        0.83171       -0.25004
H          4.79600        1.02052        1.39401
H          2.53483        1.97474       -2.06958
H          4.20843        2.55251       -1.59681
H          1.77260        2.37132        0.06994
