21

N          1.01801        2.01276        1.29580
C          2.47615        2.06708        1.41525
C          3.10763        0.66016        1.33165
O          2.74037        0.02366        0.09954
C          4.63805        0.68818        1.36917
C          5.20009        1.25716        2.66998
C          6.69829        1.28267        2.65484
C          7.42658        2.40027        2.74054
H          0.63358        2.93413        1.50992
H          0.64117        1.38674        2.01054
H          2.72885        2.55261        2.36689
H          2.85500        2.69184        0.60183
H          2.72848        0.03246        2.14791
H          2.14979        0.64259       -0.36926
H          5.01233        1.25472        0.50547
H          5.00984       -0.33644        1.22554
H          4.86682        0.64779        3.51351
H          4.82096        2.27208        2.84007
H          7.20933        0.32055        2.56502
H          6.96331        3.37648        2.82813
H          8.51069        2.36177        2.72137
