19

N          2.90155       -0.78123        1.09070
C          2.50215       -0.00506       -0.08697
C          3.04744       -0.62940       -1.37645
O          4.47673       -0.58478       -1.35254
C          5.03313       -1.18851       -2.51914
O          6.45946       -1.15860       -2.44207
C          7.06777       -1.70719       -3.53625
C          8.39639       -1.78280       -3.62829
H          2.68574       -0.25020        1.93208
H          3.92154       -0.87024        1.06528
H          2.89137        1.01337        0.02029
H          1.40999        0.04375       -0.12955
H          2.68396       -0.05733       -2.23764
H          2.70656       -1.66734       -1.47072
H          4.70319       -0.62592       -3.40146
H          4.69355       -2.22991       -2.58493
H          6.41334       -2.07093       -4.31793
H          9.02812       -1.40888       -2.82734
H          8.87591       -2.21470       -4.49867
