18

N          3.00438        0.34900       -1.33824
C          2.49112        0.01665       -0.12357
N          1.30765        0.38692        0.23170
C          3.30044       -0.84543        0.82427
C          4.79541       -0.59247        0.75204
C          5.70115       -1.45752        1.64008
C          6.51611       -1.64307        0.36016
O          5.39237       -1.18945       -0.44569
H          2.35306        0.56653       -2.08067
H          3.80487       -0.20547       -1.64680
H          0.90104        0.96891       -0.50248
H          3.06711       -1.89362        0.59907
H          2.94749       -0.64956        1.84287
H          5.04428        0.47610        0.80189
H          5.24618       -2.37668        2.01977
H          6.20857       -0.92801        2.44948
H          6.80608       -2.67181        0.13263
H          7.37424       -0.97445        0.24368
