17

O          1.11570       -0.08976       -0.03642
N          2.51286       -0.02063       -0.00385
C          3.00885        0.47815       -1.09242
C          2.24757        0.97118       -2.27897
C          2.79262        1.51812       -3.37259
C          4.49497        0.60277       -1.12150
C          5.35572       -0.44990       -0.45245
C          5.34962       -0.33421       -1.94556
H          0.91061       -0.47449        0.83601
H          1.16834        0.87485       -2.21411
H          3.86030        1.64879       -3.50113
H          2.15456        1.85640       -4.18434
H          4.84326        1.62683       -1.02156
H          4.87029       -1.31463       -0.01184
H          6.22594       -0.10858        0.09470
H          4.86377       -1.12216       -2.50913
H          6.23757        0.06883       -2.41932
