14

O          1.22143       -0.15925        0.85438
C          2.10073       -0.16228       -0.01174
C          3.17949       -1.27617       -0.22664
C          4.08372       -1.62337        0.98142
C          3.78278       -3.09063        0.65454
N          2.58996       -2.65662       -0.10316
C          3.87616       -1.07462       -1.48860
N          4.44028       -0.87515       -2.48327
H          2.15976        0.69131       -0.71139
H          3.68843       -1.29615        1.95079
H          5.13623       -1.33151        0.91845
H          3.57405       -3.73350        1.51415
H          4.53960       -3.57852        0.02950
H          1.73920       -2.65098        0.46924
