14

C          1.43403       -0.58933       -0.65645
C          2.33975        0.07491        0.07359
C          3.15763       -0.53045        1.18430
C          4.63904       -0.46581        0.97329
N          5.41557        0.51656        1.38547
N          6.73963        0.31271        1.05136
C          6.91093       -0.81623        0.39935
S          5.47728       -1.71989        0.14352
H          0.87762       -0.08416       -1.44129
H          1.22500       -1.64244       -0.49528
H          2.50926        1.13204       -0.12763
H          2.85385       -1.56983        1.36219
H          2.91864        0.01103        2.10871
H          7.87999       -1.14697        0.05388
