14

C          0.98914        0.02827       -0.08245
C          2.47249        0.18378       -0.08731
C          3.18896        1.32342       -0.16423
N          2.71032        2.60609       -0.24545
S          4.91291        0.95067       -0.13140
C          4.60077       -0.77730       -0.03017
O          5.45153       -1.64737        0.02219
N          3.24292       -0.95279       -0.01482
H          0.46745        0.98946       -0.10369
H          0.66527       -0.50381        0.81835
H          0.66449       -0.54593       -0.95637
H          1.79009        2.73607        0.16150
H          3.39359        3.28027        0.09099
H          2.86320       -1.88707        0.03449
