15

C          0.88511        0.05520       -0.07885
C          2.37267       -0.02167       -0.08498
C          3.28868        1.01078       -0.06736
C          4.62297        0.52651       -0.09110
O          5.73152        1.29617       -0.07584
C          4.70331       -0.84820       -0.13568
N          5.82384       -1.59936       -0.18590
S          3.14527       -1.55167       -0.11777
H          0.54769        1.09708       -0.08064
H          0.47397       -0.42868        0.81330
H          0.46706       -0.43241       -0.96575
H          3.00497        2.05441       -0.04175
H          5.48200        2.23532       -0.07016
H          6.71342       -1.15072        0.01180
H          5.77753       -2.58803        0.03078
