21

O          0.91296       -0.13377       -0.04870
C          2.33325       -0.15191       -0.01336
C          2.86005        0.57255       -1.24312
C          4.38522        0.64427       -1.25310
C          4.87329        1.35972       -2.50516
C          4.50571        2.85308       -2.67976
N          5.86036        3.06660       -3.23314
C          6.32860        1.88691       -2.47263
H          0.60080       -0.59429        0.74870
H          2.66977       -1.19329        0.00167
H          2.66384        0.34377        0.90462
H          2.43171        1.58247       -1.27409
H          2.49388        0.07379       -2.14918
H          4.80584       -0.36867       -1.22456
H          4.73299        1.16204       -0.35197
H          4.66570        0.77063       -3.41108
H          4.32156        3.39529       -1.74472
H          3.68851        3.05647       -3.37727
H          6.29416        3.94963       -2.96943
H          6.71033        2.13528       -1.47468
H          7.06849        1.27244       -2.99247
