19

C          0.93237       -0.15282        0.00248
O          2.35130       -0.11949        0.09589
C          2.87940       -1.37870        0.51686
C          4.41751       -1.34323        0.54590
C          4.92798       -0.23312        1.49280
N          6.39428       -0.12144        1.52271
C          4.92648       -2.67355        0.95990
C          5.34133       -3.74621        1.30617
H          0.57817        0.85390       -0.23448
H          0.48865       -0.46439        0.95322
H          0.62142       -0.83085       -0.79808
H          2.54029       -2.15919       -0.17667
H          2.48512       -1.61650        1.51335
H          4.77683       -1.11586       -0.46643
H          4.57454       -0.42076        2.51390
H          4.52871        0.73875        1.18286
H          6.79599       -1.02928        1.75858
H          6.66501        0.51363        2.27113
H          5.71660       -4.69418        1.61821
