19

N          2.24849        1.45057        0.64960
C          2.37443        0.10240        0.09641
C          2.90981       -0.89835        1.12691
C          1.98450       -1.06437        2.32677
O          2.34349       -2.32873        2.90663
C          2.60083       -3.21213        1.80514
C          3.03543       -2.32920        0.67540
C          3.45278       -2.77081       -0.51856
H          1.88055        2.07472       -0.06893
H          3.17456        1.81046        0.88289
H          3.04095        0.14620       -0.77182
H          1.39179       -0.21944       -0.26812
H          3.89790       -0.57924        1.48557
H          0.92476       -1.10096        2.04525
H          2.12160       -0.27776        3.07487
H          1.67353       -3.74170        1.56374
H          3.37348       -3.92562        2.10345
H          3.50457       -3.83420       -0.73591
H          3.76847       -2.09256       -1.30448
