18

C          2.71955       -0.59865        2.25176
O          3.17794       -0.34397        0.92825
N          3.84271        0.89110        0.92287
C          4.28054        1.12512       -0.27672
C          5.05132        2.39545       -0.62191
N          4.74591        3.45250        0.34799
C          6.51788        2.09023       -0.58786
C          7.35114        2.23443       -1.62776
H          2.15243       -1.53308        2.24862
H          2.06355        0.20994        2.59017
H          3.57072       -0.70288        2.93121
H          4.12760        0.40313       -1.10014
H          4.73319        2.71624       -1.61999
H          4.90396        3.05773        1.27862
H          3.73830        3.61067        0.32865
H          6.92371        1.73028        0.35603
H          7.01042        2.60821       -2.58805
H          8.40836        2.00623       -1.52543
