16

N          1.00406       -0.01124       -0.09377
C          2.47549       -0.00837       -0.11836
C          3.23349       -0.77160       -1.17732
N          2.52336       -1.54414       -2.20664
C          3.20978        0.73711       -1.20671
O          4.42901        1.38944       -0.78790
C          5.05878        2.15979       -1.71073
O          4.69048        2.38511       -2.85258
H          0.66269       -0.61191        0.65605
H          0.62769       -0.40362       -0.95434
H          2.92950        0.03981        0.86989
H          4.16275       -1.23566       -0.85459
H          1.78864       -0.99814       -2.65235
H          2.08712       -2.37193       -1.80478
H          2.59754        1.23227       -1.95510
H          5.97663        2.57064       -1.26352
