16

N          1.15315       -1.75876        0.32560
N          2.57060       -1.71043        0.39905
C          3.17854       -0.59277        0.96789
O          2.56061        0.42053        1.29495
C          4.69755       -0.70497        1.05078
O          5.08118       -1.66528        2.03151
C          6.43884       -1.72418        2.18705
C          7.00656       -2.42402        3.17107
H          0.88721       -1.88609       -0.65537
H          0.80823       -0.82126        0.57266
H          3.09027       -2.58688        0.38343
H          5.10093        0.28461        1.29539
H          5.06890       -1.01198        0.06640
H          7.03102       -1.18963        1.45493
H          6.40281       -2.95620        3.90084
H          8.08382       -2.46926        3.27646
