12

N          1.06176        0.02699        0.00437
C          2.38553        0.16852        0.03535
C          3.20774        1.26936        0.05165
C          4.53135        0.76380        0.07070
C          4.42464       -0.60742        0.07096
O          3.11488       -0.97463        0.05102
C          5.75181        1.49571        0.08460
N          6.74627        2.09378        0.09541
H          0.42021        0.80691        0.08270
H          0.64778       -0.89646        0.07589
H          2.89243        2.30274        0.04431
H          5.13687       -1.42083        0.08072
