17

C          0.93486       -0.53279       -0.13218
C          2.35994       -0.04441        0.08201
C          2.83231        0.79573       -1.06540
C          2.71747        2.16090       -1.23003
C          3.27511        2.60239       -2.46624
C          3.80087        1.56707       -3.20456
N          4.38719        1.64781       -4.41488
S          3.63014        0.07220       -2.39682
H          0.61407       -1.14949        0.71317
H          0.85246       -1.13615       -1.04271
H          0.23830        0.30769       -0.22313
H          3.02435       -0.90395        0.23077
H          2.40346        0.54506        1.00616
H          2.25114        2.81435       -0.50244
H          3.28710        3.63406       -2.79265
H          4.25170        2.46756       -4.99666
H          4.53849        0.78986       -4.93718
