14

C          0.95483        0.13691       -0.06366
C          2.44245        0.04850       -0.05830
C          3.36441        1.07509       -0.05513
C          4.70583        0.59364       -0.04956
C          4.76299       -0.78418       -0.04891
S          3.20619       -1.48385       -0.05525
C          5.93294       -1.63093       -0.04362
O          7.09233       -1.22178       -0.03781
H          0.62499        1.18106       -0.06482
H          0.53415       -0.34621        0.82439
H          0.54043       -0.34628       -0.95459
H          3.09331        2.12445       -0.05649
H          5.58837        1.22382       -0.04610
H          5.74542       -2.71911       -0.04499
