17

N          0.91619        0.13540       -0.06129
C          2.38435       -0.01783        0.01756
C          2.90319       -0.58799        1.37494
O          2.45493        0.27394        2.42316
C          2.43894       -2.00511        1.64259
C          2.15765       -2.53659        2.84218
C          4.42319       -0.58799        1.37494
C          5.72705       -0.58799        1.37494
H          0.67701        0.47624       -0.99335
H          0.64109        0.88274        0.57725
H          2.82169        0.97533       -0.14921
H          2.71392       -0.65703       -0.81046
H          1.50462        0.08316        2.50203
H          2.32407       -2.63617        0.76309
H          2.28109       -1.96600        3.75846
H          1.83256       -3.56808        2.93274
H          6.79226       -0.58714        1.38654
