16

O          1.93023       -1.16716        0.70796
N          2.54956       -0.13923       -0.01189
C          3.18175        0.88072        0.81586
C          2.16058        1.73010        1.55628
C          2.85610        2.75431        2.41597
O          4.07462        2.84707        2.51921
C          1.98241        0.11262       -1.23349
N          1.24410       -0.69225       -1.91790
H          2.68392       -1.67681        1.06229
H          3.82182        1.51128        0.18744
H          3.84819        0.38352        1.53122
H          1.53123        1.11584        2.20985
H          1.50738        2.26259        0.85801
H          2.19182        3.43122        2.97471
H          2.23002        1.10653       -1.63975
H          1.15902       -1.54525       -1.35132
