16

N          2.79978        0.18324        1.40287
C          2.50106       -0.02654        0.08805
N          1.57183       -0.85758       -0.25274
C          3.26524        0.70727       -1.01764
C          4.75259        0.35332       -1.00444
O          5.46807        1.44828       -0.37624
C          4.56354        2.48818       -0.41193
C          3.32289        2.16884       -0.75748
H          2.54121       -0.53189        2.06951
H          3.68783        0.63580        1.60572
H          1.12951       -1.23584        0.58743
H          2.81773        0.47421       -1.98927
H          5.14112        0.25267       -2.02569
H          4.97908       -0.56971       -0.46030
H          4.95453        3.44735       -0.11322
H          2.48011        2.84174       -0.80849
