16

O          3.05328        2.31259       -1.54318
C          2.43869        1.88612       -0.57148
C          3.06568        1.20425        0.60748
C          4.53818        0.99571        0.49887
N          5.08319       -0.18274        0.51108
N          6.42130        0.03098        0.47558
C          6.74179        1.37700        0.00944
C          5.50718        2.13880        0.44402
H          1.34392        2.01212       -0.50842
H          2.57173        0.23481        0.73023
H          2.86383        1.80751        1.49796
H          6.92040       -0.69610       -0.03909
H          6.83756        1.38689       -1.08225
H          7.65979        1.76967        0.45497
H          5.21255        2.90836       -0.27075
H          5.60774        2.56672        1.44626
