19

N          3.08843        1.27831       -0.01884
C          2.35715        0.02263       -0.07961
C          2.92317       -0.95218        0.93260
C          2.77493       -0.48619        2.36883
O          3.24123       -1.47041        3.29503
C          2.77327       -2.43015        0.60910
C          4.12381       -1.78176        0.50396
O          5.07124       -2.17195        1.50956
H          2.75093        1.90269       -0.74989
H          4.07257        1.10702       -0.22664
H          2.42138       -0.38001       -1.09732
H          1.29780        0.20257        0.13256
H          1.72801       -0.26297        2.60126
H          3.36495        0.41892        2.54051
H          2.50011       -2.08645        3.43210
H          2.28624       -2.71802       -0.31660
H          2.62074       -3.14850        1.40500
H          4.51871       -1.63202       -0.49621
H          4.72286       -1.98924        2.40859
