16

O          3.08610        1.21945        0.26271
C          2.45367       -0.03513       -0.02192
S          2.95564       -1.43315        0.99745
O          2.53047       -1.17493        2.36266
O          2.52403       -2.63772        0.30815
C          4.74687       -1.33292        0.92103
C          5.34449       -2.45324        1.72573
C          6.17394       -3.38187        1.23151
H          2.56457        1.90398       -0.19210
H          2.67444       -0.29772       -1.06027
H          1.37230        0.07316        0.10407
H          5.04808       -0.36984        1.34226
H          5.03515       -1.38099       -0.13323
H          5.07491       -2.49346        2.78085
H          6.46897       -3.39530        0.18677
H          6.56678       -4.16815        1.87013
