16

N          1.05908       -0.22556        0.14933
N          2.38507        0.02701        0.05135
C          3.00539       -0.40406       -1.00357
C          2.42461       -1.21967       -2.12594
C          2.95910       -0.67994       -3.42660
O          4.37151       -0.81097       -3.39942
C          4.91279        0.01208       -2.37655
O          4.32747       -0.14776       -1.08216
H          0.70106        0.20915        1.00456
H          0.52888        0.19851       -0.61122
H          1.33325       -1.19293       -2.13996
H          2.74336       -2.25674       -1.96791
H          2.67773        0.36812       -3.58900
H          2.57916       -1.26648       -4.26839
H          4.83801        1.06708       -2.66550
H          5.97632       -0.22819       -2.28861
