14

C          0.06877        0.90952       -0.06547
N         -0.73846       -0.26604        0.15635
C          0.72026       -0.45330        0.05330
C          1.48898       -0.82604        1.31415
C          1.13035       -0.45843        2.59587
S          2.25949       -1.09211        3.72017
C          3.12086       -1.80317        2.41846
N          2.63228       -1.59818        1.21505
H          0.14847        1.60799        0.75782
H          0.01553        1.36669       -1.04599
H         -1.18238       -0.59191       -0.70320
H          1.09868       -0.89854       -0.86062
H          0.27778        0.12258        2.91660
H          4.01639       -2.38668        2.58648
