16

O          0.81236        0.35254        0.11557
C          2.21053        0.16848       -0.01045
C          2.83081        1.34878        0.65552
C          3.60931        1.25943        1.73527
C          3.99815       -0.02141        2.40943
N          3.46036       -1.18828        1.74943
C          2.71308       -1.17512        0.59563
N          2.42276       -2.28988       -0.01455
H          0.44542        0.27712       -0.77959
H          2.47619        0.16085       -1.07551
H          2.58109        2.32013        0.24255
H          3.99712        2.17269        2.18319
H          3.65588       -0.00500        3.44901
H          5.09083       -0.09936        2.42110
H          3.76705       -2.07661        2.11578
H          2.82166       -3.06827        0.51384
