14

N          1.03721       -0.12626        0.07367
C          2.41478       -0.12829       -0.00335
O          3.10383        1.06646        0.18636
C          2.61104        2.05921        0.99842
C          3.26570        3.21091        1.15643
C          3.12459       -1.22538       -0.30192
C          4.64459       -1.22538       -0.30192
N          5.90556       -1.22538       -0.30192
H          0.63810        0.75913       -0.23073
H          0.59099       -0.92072       -0.37632
H          1.69149        1.83030        1.51345
H          4.20447        3.39333        0.64268
H          2.88190        3.98746        1.80946
H          2.66092       -2.18669       -0.47781
