17

C          1.07221        0.17239        0.18752
S          2.80754       -0.07975       -0.09171
O          3.16408       -1.40180        0.37683
O          3.13200        0.37247       -1.42776
O          3.36212        1.02245        0.97371
C          4.77849        1.12306        1.09585
C          5.14375        2.19637        2.12414
N          4.66999        1.85371        3.46627
H          0.52401       -0.50505       -0.47152
H          0.82071        1.20732       -0.05102
H          0.84286       -0.05583        1.22986
H          5.20217        1.40156        0.12430
H          5.19418        0.15366        1.39368
H          4.70195        3.15558        1.83369
H          6.23164        2.31540        2.15406
H          3.65377        1.76653        3.44528
H          4.88163        2.61782        4.10661
