19

N          0.96502       -0.12270        0.01473
C          2.41854       -0.04799        0.09371
C          3.27312       -0.86676       -0.82910
C          3.17452        0.62441       -1.02203
C          4.33444        1.51937       -0.69010
C          4.00020        2.96424       -0.89709
C          2.88958        3.63665       -0.12996
O          4.26751        3.81054        0.22852
H          0.60453       -0.82283        0.66067
H          0.65214       -0.41074       -0.91233
H          2.79803        0.09586        1.10403
H          2.79388       -1.50397       -1.56444
H          4.19751       -1.27628       -0.43479
H          2.63279        0.96073       -1.89944
H          5.17851        1.26128       -1.34029
H          4.67375        1.34807        0.33914
H          4.24509        3.32990       -1.88487
H          2.26608        3.03689        0.52167
H          2.38239        4.47242       -0.59537
