21

C          0.99304        0.10617        0.11604
C          2.50210       -0.04142        0.05532
N          3.21229        1.03838        0.79539
C          4.21880        0.02192        1.26650
C          5.52402        0.11658        0.45468
N          6.16104        1.42215        0.65080
C          3.14272       -1.07353        1.01589
N          3.65420       -2.22874        0.27172
H          0.66422        0.97804       -0.45916
H          0.63089        0.22022        1.14426
H          0.50769       -0.77672       -0.31240
H          2.84145       -0.10975       -0.98772
H          2.67638        1.42729        1.57301
H          4.45081        0.12635        2.33610
H          5.33240       -0.01778       -0.61714
H          6.21642       -0.67202        0.77022
H          5.46020        2.13170        0.42130
H          6.91058        1.53346       -0.02948
H          2.54400       -1.32682        1.89827
H          4.30407       -2.01023       -0.48188
H          2.91827       -2.78787       -0.15835
