19

C          1.02400       -0.40809       -0.08729
C          2.30404       -0.09963       -0.33357
C          2.79908        0.75551       -1.42183
C          2.70758        0.33727       -2.86532
C          4.02039        0.26652       -2.12098
C          5.03221        1.34495       -1.92719
N          4.25617        2.58919       -1.81109
C          2.99174        2.23051       -1.12938
H          0.76070       -1.02563        0.76504
H          0.22602       -0.04731       -0.72520
H          3.05923       -0.47612        0.35966
H          2.55204        1.10855       -3.61649
H          2.18692       -0.59047       -3.09267
H          4.42650       -0.72551       -1.97636
H          5.56183        1.16989       -0.98054
H          5.77225        1.39407       -2.72775
H          4.01810        2.87658       -2.75941
H          2.16253        2.82508       -1.53001
H          3.08187        2.43107       -0.05728
