16

C          1.37285        0.42028        0.02209
C          2.84818        0.31401        0.40719
N          3.14276       -1.09793        0.76544
C          3.10514       -1.15442        2.24038
C          3.28178        0.25281        2.68657
C          3.16813        1.08341        1.64633
C          3.37287        2.48406        1.68895
N          3.56961        3.62496        1.71445
H          1.12724       -0.27919       -0.78494
H          1.13101        1.43012       -0.32442
H          0.71202        0.19317        0.86853
H          3.48014        0.61526       -0.43649
H          4.10393       -1.29264        0.47756
H          3.90818       -1.79626        2.61573
H          2.14440       -1.55628        2.57701
H          3.48520        0.53835        3.70899
