13

C          1.06986        0.14524        0.12284
C          2.55865        0.11274        0.07522
N          3.30719        1.17345        0.05230
N          4.67132        0.75022        0.00735
C          4.69029       -0.54267        0.00290
C          3.34067       -1.15268        0.06761
C          3.04904       -1.97348       -1.17804
N          2.80711       -2.65440       -2.21141
H          0.71304        1.17767        0.16759
H          0.72237       -0.39462        1.00734
H          0.66115       -0.33204       -0.77157
H          5.60495       -1.14995       -0.02156
H          3.20494       -1.72648        0.98568
