16

C          4.55567       -5.23060        0.74820
C          4.86817       -3.78524        0.50540
N          3.91849       -2.92710        0.30926
N          4.18698       -1.57142        0.05479
C          5.39689       -1.11827       -0.00435
C          6.57809       -1.96328        0.21702
C          6.97111       -3.02213       -0.77969
C          6.29157       -3.40398        0.51029
H          3.49154       -5.42548        0.59015
H          4.81925       -5.49085        1.77696
H          5.13855       -5.85131        0.06218
H          5.56434       -0.05085       -0.21866
H          7.37668       -1.49167        0.77801
H          8.02324       -3.25778       -0.88561
H          6.40391       -3.09954       -1.70148
H          6.89705       -3.87136        1.27911
