15

C          0.90926        0.18234        0.05194
C          2.24180        0.10541        0.05575
N          3.14032        1.15392        0.06213
C          4.44786        0.73531        0.06628
N          5.51631        1.43879        0.07218
N          4.36941       -0.63249        0.06241
C          3.07668       -1.10473        0.05479
C          2.68068       -2.38017        0.04732
H          0.40523        1.14213        0.05351
H          0.28294       -0.70205        0.04756
H          2.83847        2.11201        0.06388
H          5.26257        2.42849        0.07353
H          5.18157       -1.22482        0.06305
H          3.40578       -3.18642        0.04709
H          1.63361       -2.65817        0.04075
