16

C          1.07257       -0.00503       -0.36072
C          2.30299       -0.04580        0.16478
C          3.05197       -1.22911        0.53186
C          4.26379       -1.16479        1.10908
C          5.04695       -2.39257        1.45564
N          4.20691       -3.58604        1.46560
N          3.17904       -3.72901        0.59300
C          2.62162       -2.62152        0.20253
H          0.61190        0.95082       -0.59297
H          0.48079       -0.88936       -0.56860
H          2.79958        0.90625        0.34876
H          4.72438       -0.21141        1.34282
H          5.48800       -2.27142        2.45096
H          5.86676       -2.51016        0.73861
H          4.77277       -4.43421        1.50965
H          1.75502       -2.71148       -0.47041
