20

C          0.82019        0.05838        0.08681
C          2.19238       -0.01557       -0.56097
C          3.12213       -1.03547        0.08828
C          2.73166       -2.50097        0.12353
C          3.75415       -2.03940       -0.86311
N          4.00509       -0.47701        1.14127
C          3.57187       -0.32270        2.42746
N          2.69055       -0.99248        3.08088
H          0.30973        0.97696       -0.22087
H          0.87799        0.04939        1.17813
H          0.19912       -0.78661       -0.22786
H          2.66543        0.97321       -0.50834
H          2.06376       -0.22779       -1.62959
H          1.75362       -2.78639       -0.24440
H          3.08997       -3.12101        0.93810
H          3.46879       -2.04126       -1.90823
H          4.78545       -2.32797       -0.69341
H          4.64466        0.24877        0.82780
H          4.09727        0.49857        2.94453
H          2.32540       -1.73047        2.47627
