20

C          0.86958       -0.03237       -0.08934
C          2.39404       -0.01921       -0.04941
C          2.97741       -1.26309       -0.66902
C          3.95334       -0.97366       -1.54373
C          4.75354       -1.92739       -2.35396
C          4.17952        0.50764       -1.64394
C          3.04228        1.10092       -0.84491
C          2.62923        2.37131       -0.94849
H          0.47590       -0.90719        0.44082
H          0.48858       -0.06442       -1.11639
H          0.45490        0.85686        0.39752
H          2.73101        0.03464        0.99351
H          2.64807       -2.26205       -0.41917
H          4.42749       -2.96069       -2.19761
H          5.81291       -1.86111       -2.08811
H          4.64866       -1.70133       -3.41992
H          4.14987        0.84154       -2.68564
H          5.14426        0.77151       -1.19686
H          3.13979        3.07549       -1.59885
H          1.77000        2.73952       -0.39772
