23

C          0.96362        0.24507        0.05011
C          2.46610        0.02386       -0.04681
C          3.06475       -0.73357        1.15764
C          2.48325       -2.14160        1.35938
C          2.93302       -3.11163        0.26879
N          4.39136       -3.18866        0.19216
C          5.00084       -1.88002       -0.04366
C          4.59238       -0.85859        1.02053
H          0.62496        0.87147       -0.78166
H          0.69804        0.74839        0.98493
H          0.41311       -0.69806       -0.00848
H          2.95077        1.00571       -0.11869
H          2.68103       -0.49451       -0.98711
H          2.85140       -0.14244        2.05804
H          1.39056       -2.11688        1.41314
H          2.82068       -2.52400        2.33334
H          2.51423       -2.82488       -0.70254
H          2.54305       -4.11019        0.49701
H          4.65520       -3.82325       -0.56103
H          4.74241       -1.51903       -1.04564
H          6.09023       -1.99439       -0.02433
H          5.03709        0.11619        0.78839
H          5.01053       -1.16767        1.98793
