18

C          0.96380       -0.06596        0.06323
C          2.49638       -0.08853        0.03194
C          3.01107       -1.31469       -0.74580
C          3.29989       -0.76106       -2.10394
C          3.33271        0.57623       -2.09118
C          3.05345        1.13449       -0.72885
C          4.35531        1.62247       -0.11449
C          5.47204        2.04106        0.41251
H          0.57837       -0.94271        0.59453
H          0.53493       -0.06718       -0.94464
H          0.60248        0.82676        0.58426
H          2.84902       -0.12455        1.07040
H          2.27499       -2.12322       -0.78670
H          3.93500       -1.70458       -0.30435
H          3.49996       -1.37477       -2.97118
H          3.55346        1.19382       -2.95113
H          2.33486        1.95951       -0.77257
H          6.38676        2.38116        0.84013
