19

C          1.30998        0.19954       -0.46632
C          2.47676       -0.02012        0.15134
C          3.15209        1.07068        0.90249
C          3.61959        2.34685        0.15595
C          4.76314        1.44027       -0.34880
N          4.66166        0.84178        1.05482
C          5.07192        1.99072        1.91182
C          4.29908        3.13744        1.26135
H          0.81249       -0.60171       -1.00418
H          0.82381        1.17017       -0.45284
H          2.93711       -1.00417        0.13646
H          2.62590        1.24376        1.85222
H          2.96747        2.84753       -0.55671
H          5.71693        1.92567       -0.58923
H          4.53248        0.75119       -1.17021
H          6.15511        2.14868        1.87344
H          4.77870        1.83387        2.95531
H          4.96271        3.91211        0.86434
H          3.57575        3.59176        1.94600
