17

C          1.02874       -0.02470       -0.07432
C          2.36644        0.03043       -0.09963
C          3.30018       -0.98923        0.37630
C          3.29602       -2.38474       -0.19922
N          4.30033       -1.41253       -0.60546
C          5.62981       -1.63044       -0.03237
C          6.52946       -0.55326       -0.48218
C          7.24491        0.32823       -0.87505
H          0.43829        0.80284       -0.45524
H          0.50133       -0.88940        0.31265
H          2.82874        0.93023       -0.50396
H          3.59471       -0.88298        1.41558
H          2.55875       -2.63868       -0.95163
H          3.60158       -3.20821        0.43448
H          6.02203       -2.59111       -0.38635
H          5.63107       -1.67280        1.06439
H          7.86275        1.11317       -1.24636
