16

C          1.27434       -0.00866       -0.08773
C          2.60840        0.06667        0.06360
C          3.37129       -1.17591        0.22935
C          4.64806       -1.13124        0.64849
C          5.29619        0.13272        0.96727
C          4.70272        1.31221        0.70818
C          3.36340        1.34292        0.10837
C          2.90567        2.50256       -0.39241
H          0.75511       -0.96153       -0.09426
H          0.64808        0.87303       -0.17053
H          2.89812       -2.12506        0.00445
H          5.22755       -2.03968        0.76773
H          6.28290        0.09460        1.41703
H          5.20142        2.24490        0.94531
H          3.49830        3.41105       -0.35958
H          1.94451        2.58235       -0.88837
