18

C          0.99190       -0.02771        0.03675
C          2.51813       -0.01963        0.05887
C          3.09093       -1.28667        0.71380
C          3.36300       -0.91806        2.17298
C          3.52649        0.56389        2.10710
C          3.06711        1.05874        0.95137
C          3.11017        2.43323        0.61418
C          3.14762        3.59748        0.32320
H          0.62280       -0.84612       -0.59047
H          0.59973        0.91011       -0.37104
H          0.57053       -0.15934        1.03996
H          2.90074        0.07522       -0.96395
H          4.03981       -1.54977        0.22621
H          2.43328       -2.15777        0.62529
H          4.26462       -1.41390        2.54325
H          2.51958       -1.17886        2.82053
H          3.95276        1.15189        2.90844
H          3.18341        4.62977        0.06527
