20

C          1.05431       -0.04655       -0.07988
C          2.58842       -0.06007       -0.09511
C          3.11361       -1.28118       -0.87404
C          3.38710       -0.72237       -2.23293
C          3.40893        0.61521       -2.21815
C          3.14931        1.17247       -0.84775
C          4.42392        1.69306       -0.23470
C          4.60508        2.95876        0.16503
H          0.66811       -0.92747        0.44389
H          0.63510       -0.04562       -1.09183
H          0.68272        0.84199        0.44125
H          2.93057       -0.09793        0.94678
H          2.38575       -2.09724       -0.91193
H          4.04420       -1.66059       -0.43783
H          3.57819       -1.33199       -3.10490
H          3.61770        1.23645       -3.07878
H          2.39762        1.96889       -0.90524
H          5.24292        0.98560       -0.11552
H          3.82450        3.70644        0.06629
H          5.54970        3.27374        0.59788
