17

C          2.04764       -1.35921        0.54730
C          2.23887       -0.14149        0.02806
C          3.05010        0.14312       -1.12353
C          3.28657        1.36548       -1.63787
C          4.20844        1.36803       -2.77991
N          3.83622        0.68977       -4.00986
C          4.54172       -0.09459       -3.00115
C          3.78782       -0.89188       -1.95257
H          1.42991       -1.48744        1.43081
H          2.49238       -2.25289        0.12331
H          1.76060        0.70895        0.51083
H          2.86880        2.28565       -1.25042
H          5.00755        2.09721       -2.79918
H          4.46470        0.95495       -4.76932
H          5.55847       -0.40329       -3.18919
H          4.49496       -1.45253       -1.33212
H          3.09174       -1.59042       -2.43008
