17

C          1.15075        0.02146        0.02562
C          2.62842        0.11071        0.02455
N          3.35474        1.20864        0.02536
C          4.66799        0.79085        0.01928
C          5.77102        1.77536        0.01531
C          4.73203       -0.58737        0.01730
N          5.74835       -1.46383        0.01029
N          3.43033       -1.00301        0.02129
H          0.70440        1.02079        0.02724
H          0.79737       -0.51100        0.91378
H          0.79615       -0.50857       -0.86380
H          5.38384        2.79907        0.01181
H          6.39755        1.64587       -0.87257
H          6.39788        1.65201        0.90386
H          6.71460       -1.14855        0.04832
H          5.63577       -2.47104        0.06282
H          3.11384       -1.95919        0.01785
