20

C          3.38932       -0.46460       -1.07370
C          2.40064        0.01372       -0.02555
C          2.87605       -0.05607        1.43610
C          4.11735        0.78667        1.73848
C          5.39179       -0.00510        1.97976
C          5.23952       -1.49281        1.88785
N          4.12125       -2.14488        1.83421
N          2.99597       -1.41617        1.94713
H          2.93901       -0.37502       -2.06822
H          3.66084       -1.51253       -0.92513
H          4.29981        0.14066       -1.06894
H          1.47446       -0.56669       -0.12784
H          2.12742        1.05184       -0.25334
H          2.05731        0.39438        2.01220
H          3.92413        1.38728        2.63666
H          4.29261        1.51854        0.94017
H          5.80535        0.22643        2.96856
H          6.15632        0.28626        1.25067
H          6.17417       -2.07962        1.88973
H          2.18264       -1.98023        1.68364
