19

C          1.12092       -0.06156       -0.02157
C          2.64698        0.01157       -0.00177
N          3.22392       -1.06884       -0.80997
N          3.47555       -0.67806       -2.08414
C          3.47414        0.61409       -2.06152
C          3.17697        1.24561       -0.73409
C          4.47642        1.80767       -0.16158
N          4.25196        2.46358        1.12641
H          0.77017       -0.97984        0.46178
H          0.72116       -0.04583       -1.04198
H          0.69039        0.78853        0.51835
H          2.99652       -0.05142        1.03375
H          2.69614       -1.94182       -0.76356
H          3.68128        1.23490       -2.94490
H          2.42399        2.02995       -0.86632
H          4.91210        2.53354       -0.85841
H          5.22109        1.01339       -0.03147
H          3.69348        3.30682        0.99680
H          5.14833        2.77516        1.50276
