21

C          1.19503        0.38797       -0.39599
C          2.53087       -0.02240        0.20430
C          3.14675       -1.17904       -0.57295
C          4.47875       -1.73168       -0.02806
C          3.87367       -3.12572       -0.27770
N          2.52986       -2.49976       -0.27877
C          4.17072       -3.74460       -1.59386
C          5.28371       -4.46702       -1.76836
H          0.80652        1.27468        0.11446
H          0.45422       -0.41228       -0.30048
H          1.29761        0.62524       -1.46016
H          2.39819       -0.27570        1.26311
H          3.21004        0.83779        0.16547
H          3.19520       -0.96635       -1.65014
H          4.66356       -1.52054        1.03253
H          5.37251       -1.46176       -0.59816
H          4.02034       -3.83103        0.54947
H          2.08080       -2.54523        0.63605
H          3.47377       -3.60531       -2.41646
H          5.99819       -4.62903       -0.96826
H          5.49991       -4.91829       -2.73334
