17

C          0.99889        0.06731        0.07394
C          2.30275        0.06731        0.07394
C          3.82275        0.06731        0.07394
C          4.29425       -1.33495       -0.32469
C          4.07254       -1.34954       -1.81765
C          5.08941       -0.82173       -2.78243
N          4.01901        0.05266       -2.33757
C          4.30219        0.88940       -1.14070
H         -0.06658        0.06924        0.06357
H          4.22563        0.41199        1.02916
H          3.73556       -2.13231        0.17520
H          5.36108       -1.46615       -0.10625
H          3.26027       -1.98265       -2.15106
H          5.01145       -1.15228       -3.81453
H          6.09533       -0.61774       -2.44910
H          3.76444        1.84139       -1.22351
H          5.37351        1.11842       -1.06657
