16

C          1.59535        0.68393       -1.12555
C          2.19393       -0.04271       -0.17264
C          3.23572       -1.10623       -0.40643
C          4.53303       -0.71009        0.26095
C          5.01061       -1.40890        1.29639
N          4.33497       -2.50962        1.72710
C          3.22483       -2.94657        1.06327
N          2.65001       -2.38366        0.06128
H          0.84304        1.41931       -0.86278
H          1.82850        0.54738       -2.17567
H          1.90977        0.11700        0.86583
H          3.43477       -1.21581       -1.47862
H          5.05908        0.16134       -0.11381
H          5.92342       -1.15616        1.82341
H          4.70969       -3.03480        2.50650
H          2.82766       -3.89120        1.46941
