14

C          1.23715       -0.11690       -0.78607
C          2.38973       -0.02248       -0.44206
C          3.67054        0.13801        0.17574
C          4.74926        1.01656       -0.43140
C          4.87953        1.34173       -1.87325
C          4.98669       -0.03599       -2.41580
N          4.92868       -0.96528       -1.52457
N          4.94127       -0.44148       -0.25728
H          0.19879       -0.18726       -0.99136
H          3.59956        0.16504        1.26178
H          5.29189        1.67542        0.22903
H          5.79583        1.89706       -2.09600
H          4.01508        1.85503       -2.29641
H          5.08211       -0.21777       -3.49635
