17

C          5.66920        4.99444       -1.55068
C          5.81912        3.50706       -1.26031
N          4.50364        2.90317       -0.97596
N          4.43170        1.58154       -0.62385
C          5.38377        1.11801        0.13515
C          6.55903        1.91681        0.55515
N          6.26879        3.15813        1.28817
C          6.74299        3.25329       -0.09878
H          5.03612        5.15751       -2.43080
H          6.64630        5.44752       -1.75341
H          5.22644        5.53363       -0.70628
H          6.23819        3.02103       -2.14923
H          4.08003        3.45446       -0.22069
H          5.33908        0.06754        0.46314
H          7.44287        1.36400        0.84907
H          7.02102        3.36305        1.94729
H          7.74536        3.63118       -0.25191
