19

C          0.98558        0.13378       -0.10074
C          2.47250        0.16522       -0.01998
N          3.27952       -0.58459       -0.97946
C          3.28439        0.88379       -1.07015
C          4.52812        1.63619       -0.68925
N          5.58336        1.30486       -1.62289
C          6.83955        1.79823       -1.49731
N          7.86726        1.37427       -2.13552
H          0.58488       -0.57974        0.62636
H          0.62635       -0.15674       -1.09350
H          0.57562        1.12120        0.13348
H          2.82921        0.17285        1.00402
H          2.69581       -0.99284       -1.71283
H          2.78914        1.30842       -1.93575
H          4.84338        1.38429        0.33006
H          4.32302        2.71200       -0.71992
H          5.49799        0.37367       -2.01703
H          6.93356        2.63451       -0.78248
H          7.58497        0.62165       -2.76663
