19

C          1.14264        0.40364        0.52374
C          2.46505       -0.09595       -0.03691
C          2.92155       -1.33057        0.66354
C          3.71733       -1.48722        1.78090
C          3.83069       -2.87815        2.05139
C          4.57682       -3.51048        3.16752
C          3.10329       -3.52667        1.07321
N          2.56200       -2.58554        0.23853
H          0.83709        1.32313        0.01461
H          1.22126        0.61814        1.59524
H          0.34924       -0.33957        0.38830
H          3.22439        0.68760        0.07035
H          2.35874       -0.28899       -1.11083
H          4.16316       -0.68120        2.35072
H          5.11121       -2.76200        3.76143
H          5.31080       -4.22544        2.78255
H          3.88893       -4.04314        3.83201
H          2.92327       -4.57966        0.90299
H          1.97864       -2.78594       -0.56340
