20

C          0.81833       -0.12328        0.13815
C          2.35139       -0.10093        0.14635
C          2.86835       -1.33979       -0.54974
C          3.65532       -1.30177       -1.63247
C          4.06303       -0.05662       -2.22366
C          3.71856        1.12162       -1.68835
C          2.87605        1.25234       -0.43949
C          3.67045        2.01948        0.62402
H          0.43330       -1.04568        0.58744
H          0.42223       -0.05429       -0.88122
H          0.41760        0.71664        0.71620
H          2.66371       -0.18193        1.19637
H          2.58526       -2.30344       -0.13386
H          4.00373       -2.21982       -2.09687
H          4.66867       -0.09973       -3.12423
H          4.04736        2.03910       -2.16990
H          2.01734        1.88237       -0.70848
H          4.56948        1.47073        0.92635
H          3.05808        2.18802        1.51669
H          3.98418        3.00079        0.25033
