15

C          0.94432       -0.11528        0.17333
C          2.45500        0.04682        0.07208
N          3.04909       -1.20550       -0.50929
C          3.97903       -0.75824       -1.29588
N          4.14545        0.58689       -1.41494
C          2.97810        1.21700       -0.80388
C          1.97571        1.66195       -1.85632
N          1.14415        2.03108       -2.72941
H          0.69465       -0.93910        0.85122
H          0.49208       -0.35768       -0.79383
H          0.47900        0.79513        0.56412
H          2.86562        0.14941        1.08511
H          4.63528       -1.39123       -1.91396
H          4.44356        0.93494       -2.32023
H          3.26987        2.07410       -0.18846
