22

C          0.85374       -0.19733       -0.38453
C          2.35840       -0.05637       -0.20526
C          2.92073       -1.02598        0.82984
C          2.81255       -2.50473        0.49877
C          4.14861       -1.83759        0.42795
N          5.17903       -2.21563        1.40026
N          2.71365       -0.66773        2.26369
C          3.36006        0.57457        2.66713
H          0.48714        0.55281       -1.09186
H          0.32272       -0.06911        0.56210
H          0.59656       -1.18405       -0.78506
H          2.59261        0.97614        0.07378
H          2.84063       -0.21581       -1.17742
H          2.35259       -2.80221       -0.43643
H          2.60802       -3.20113        1.30488
H          4.54695       -1.66709       -0.56943
H          4.77188       -2.60204        2.24874
H          5.70831       -1.39437        1.68559
H          3.05421       -1.41955        2.85987
H          2.86312        1.44427        2.22976
H          4.42060        0.59462        2.39674
H          3.28992        0.68325        3.75579
