21

C          0.59339        0.11252        0.57053
C          1.97582       -0.16406        0.00192
C          2.91915        0.97526        0.25085
C          4.32479        0.94837       -0.30589
C          4.74931        0.11350       -1.46974
N          4.41388        0.95474       -2.62215
C          3.23612        1.76211       -2.28769
C          3.35628        1.96513       -0.81273
H         -0.06386       -0.74767        0.40457
H          0.14131        0.98797        0.09586
H          0.64063        0.30031        1.64873
H          1.88026       -0.39258       -1.06448
H          2.38055       -1.06118        0.48368
H          2.82478        1.35212        1.26575
H          5.14875        1.28571        0.30830
H          4.20909       -0.83795       -1.50633
H          5.82239       -0.09542       -1.44943
H          4.23460        0.38280       -3.44285
H          2.30876        1.24551       -2.55373
H          3.27091        2.71243       -2.82895
H          3.51435        2.99990       -0.53753
