21

C          1.09052       -0.32780       -0.48598
C          2.51952       -0.05006       -0.04115
C          3.05491       -1.21046        0.80303
C          4.49992       -1.22159        1.37718
C          4.89228       -1.63417       -0.05511
N          3.57584       -2.40941       -0.00402
C          3.85636       -3.41584        1.06116
C          4.54746       -2.54976        2.11378
H          0.71339        0.50039       -1.09445
H          0.42637       -0.44087        0.37833
H          1.02987       -1.24540       -1.07894
H          2.52717        0.86394        0.56431
H          3.12739        0.15507       -0.92687
H          2.29264       -1.46773        1.55540
H          4.91882       -0.32184        1.82194
H          5.79731       -2.24426       -0.16722
H          4.94815       -0.84055       -0.80770
H          4.50864       -4.21452        0.69103
H          2.93144       -3.86597        1.43670
H          5.57470       -2.87479        2.31007
H          3.99030       -2.51812        3.05611
