18

C          3.61029       -0.80658       -0.66910
C          2.44342       -0.07848       -0.01520
C          2.87733        0.84392        1.09377
C          2.64421        2.16592        1.06145
C          3.19564        2.95012        2.18994
N          3.68252        2.47720        3.29382
N          3.58254        1.13011        3.43927
C          3.58240        0.23569        2.27974
H          3.25231       -1.41816       -1.50338
H          4.11289       -1.47417        0.03797
H          4.35074       -0.10048       -1.05882
H          1.73228       -0.81174        0.38372
H          1.90745        0.48318       -0.79029
H          2.14472        2.68748        0.25754
H          3.20162        4.04223        2.03788
H          4.21932        0.79183        4.16023
H          3.08325       -0.69452        2.57244
H          4.61552       -0.00554        2.00363
