17

C          0.88271        0.02489        0.11072
C          2.42301       -0.00959        0.02240
C          2.91068       -1.18286        0.87028
C          3.18885       -2.42590        0.44635
C          2.95509       -0.07470       -1.40618
C          2.25091       -0.15767       -2.54630
C          2.92967        1.27765        0.65225
N          3.34999        2.34552        1.17476
H          0.43166       -0.88903       -0.29422
H          0.46658        0.87853       -0.43930
H          0.54238        0.12455        1.14973
H          3.01015       -0.98986        1.94009
H          3.08501       -2.72269       -0.59318
H          3.51338       -3.18979        1.14751
H          4.04260       -0.05567       -1.49448
H          1.16765       -0.18606       -2.57127
H          2.76102       -0.20146       -3.50556
