16

C          5.25204        1.80022       -1.78667
C          4.60724        0.98074       -1.00391
C          3.85555        0.02541       -0.09138
C          4.35676        0.13269        1.32931
N          4.87877       -0.89473        1.95316
C          5.24250       -0.35551        3.29499
C          5.17055        1.17024        3.17892
N          4.30745        1.31649        2.03069
H          5.78114        2.46250       -2.43279
H          3.97812       -1.00086       -0.45189
H          2.78937        0.27424       -0.10370
H          6.24447       -0.68584        3.58499
H          4.52301       -0.72985        4.03227
H          6.15832        1.59133        2.96354
H          4.76011        1.64127        4.07557
H          4.39006        2.16932        1.48732
