13

C          1.04089        0.03327       -0.17769
C          2.24116        0.01558       -0.15094
C          3.71709       -0.02285       -0.06674
C          4.25195        0.85414        1.07434
C          3.74708        0.39022        2.39259
C          3.34608        0.00685        3.45847
C          5.77195        0.85414        1.07434
N          7.03292        0.85414        1.07434
H         -0.02649        0.03978       -0.17617
H          4.13490        0.31714       -1.02252
H          4.04232       -1.06326        0.06379
H          3.92069        1.88986        0.92116
H          2.99629       -0.34185        4.40336
