20

C          2.78519       -0.89171       -1.34644
C          2.48571       -0.03139       -0.12866
C          3.01497       -0.61167        1.18613
C          4.50367       -0.80356        1.18658
C          5.45535        0.35499        1.13615
N          5.37967       -0.49697        2.32800
N          4.71163        0.21990        3.24952
C          5.11660       -0.04541        4.44578
H          2.30577       -0.46428       -2.23294
H          2.40755       -1.91010       -1.21341
H          3.86041       -0.94235       -1.54453
H          1.39837        0.08499       -0.04233
H          2.89985        0.97103       -0.28730
H          2.54051       -1.58341        1.37201
H          2.67994        0.04913        1.99293
H          4.78637       -1.69904        0.64327
H          5.06792        1.36437        1.19927
H          6.35838        0.24633        0.54913
H          4.66243        0.48027        5.30027
H          5.90822       -0.77944        4.67863
