15

C          2.21944       -0.52149       -1.37030
C          2.14794       -0.02489       -0.12839
C          3.23420        0.68289        0.55099
C          2.87542        1.52052        1.54129
C          4.63687        0.32653        0.32939
C          5.75256        1.06976        0.41247
C          5.82501        2.44466        0.75437
N          5.92630        3.56191        1.05179
H          1.37053       -1.04147       -1.80415
H          3.10433       -0.41829       -1.98842
H          1.21733       -0.15118        0.42375
H          1.83163        1.73965        1.75342
H          3.58949        2.02820        2.18099
H          4.77305       -0.71049        0.01609
H          6.70378        0.59855        0.18238
