17

C          0.90795        0.03607       -0.01499
C          2.21180        0.03607       -0.01499
C          3.73180        0.03607       -0.01499
C          4.25705       -1.39673       -0.23391
N          4.28699       -1.61953       -1.70098
C          4.52642       -0.28314       -2.28220
C          3.43110        0.67669       -2.60168
C          4.14103        0.76936       -1.26734
H         -0.15771        0.03933       -0.01593
H          4.12904        0.49177        0.89642
H          3.66461       -2.16295        0.27629
H          5.28795       -1.46712        0.13002
H          3.35429       -1.93585       -1.98319
H          5.46825       -0.16805       -2.81244
H          2.41154        0.31329       -2.65304
H          3.63613        1.45516       -3.33012
H          4.84859        1.56814       -1.09019
