18

C          1.05433       -0.01144       -0.10405
C          2.54359       -0.12732       -0.06388
C          3.26155       -0.46793        1.01337
C          2.74047       -0.81897        2.34743
N          3.64476       -0.93070        3.26998
N          4.83022       -0.58713        2.68186
C          4.74382       -0.54499        1.21013
C          5.35576       -1.80375        0.60153
H          0.75267        0.59601       -0.96290
H          0.66411        0.48168        0.79267
H          0.59381       -0.99777       -0.20670
H          3.06882        0.12419       -0.98309
H          1.66654       -0.99367        2.50141
H          5.61023       -1.14393        3.02891
H          5.24787        0.35147        0.83592
H          4.87889       -2.71598        0.98052
H          6.42485       -1.86630        0.83524
H          5.25056       -1.80240       -0.48837
