22

C          1.07782        0.20445       -0.37180
C          2.56110        0.03381       -0.08250
C          2.95417        0.48594        1.32061
C          2.26826       -0.22751        2.47588
N          2.56141       -1.65775        2.45779
C          4.39986        0.90701        1.51949
N          3.35124        1.91245        1.41121
C          3.05827        2.59797        2.66305
H          0.86944       -0.02040       -1.42278
H          0.74970        1.22839       -0.16772
H          0.47285       -0.47384        0.23751
H          3.12189        0.60555       -0.83484
H          2.84753       -1.01406       -0.23097
H          1.18571       -0.06565        2.43553
H          2.60725        0.15435        3.44372
H          2.11933       -2.08056        1.64323
H          2.11836       -2.09277        3.26579
H          5.08002        0.84147        0.67815
H          4.86772        0.72126        2.47940
H          3.38170        3.64055        2.57526
H          3.56547        2.18504        3.54247
H          1.98002        2.61172        2.85468
