23

C          3.27517        0.10750       -1.28342
C          2.45337        0.03142       -0.00473
C          3.10865       -0.85735        1.06858
C          4.49655       -0.38076        1.54133
N          4.45736        0.98118        2.07050
C          2.13488       -1.20625        2.24225
C          2.59632       -2.67103        2.14220
C          3.06991       -2.37746        0.70905
H          2.77516        0.75163       -2.01342
H          3.39844       -0.88227       -1.73390
H          4.27066        0.52338       -1.10392
H          1.45971       -0.35859       -0.26134
H          2.28631        1.04265        0.38353
H          5.22213       -0.43224        0.72288
H          4.87786       -1.03729        2.33193
H          4.23584        1.63510        1.31869
H          5.38954        1.24158        2.38983
H          1.07120       -1.07662        2.00936
H          2.33441       -0.72574        3.20481
H          1.80582       -3.42121        2.23203
H          3.40711       -2.93013        2.83143
H          2.32546       -2.64974       -0.04912
H          4.02463       -2.83313        0.43063
