19

C          0.98353       -0.07568        0.03632
C          2.50281       -0.10602        0.06385
C          2.99831       -0.73312        1.29588
C          3.38918       -1.24193        2.31160
C          3.82651       -1.84161        3.53869
C          4.07010       -3.32778        3.56718
C          5.23308       -2.38243        3.63837
N          5.98621       -2.27735        4.89103
H          0.62827        0.40081       -0.88283
H          0.58335        0.48616        0.88753
H          0.56686       -1.08809        0.07798
H          2.88764        0.91704       -0.01172
H          2.87182       -0.65556       -0.80907
H          3.39745       -1.40592        4.43560
H          3.94568       -3.89808        2.65322
H          3.78331       -3.87052        4.45982
H          5.85549       -2.32662        2.74674
H          5.37132       -2.30167        5.70327
H          6.47627       -1.38400        4.93726
