23

C          0.89404       -0.05572        0.33985
C          2.31376        0.07153       -0.18481
C          3.15869       -1.12424        0.12788
N          2.81358       -2.46562       -0.32252
C          3.99445       -1.84092       -0.93915
C          3.87883       -1.46286       -2.39696
C          5.37258       -2.30804       -0.50962
C          5.63827       -3.76580       -0.84974
H          0.34460        0.87572        0.16714
H          0.88514       -0.26676        1.41471
H          0.35762       -0.86148       -0.16957
H          2.78469        0.94635        0.28160
H          2.27714        0.28441       -1.25658
H          3.53065       -1.08613        1.14769
H          2.01073       -2.45136       -0.95276
H          2.83874       -1.35815       -2.72533
H          4.33838       -2.22412       -3.03486
H          4.39045       -0.51243       -2.57992
H          5.51490       -2.16729        0.56868
H          6.12525       -1.68045       -1.00162
H          4.98278       -4.42941       -0.27601
H          6.67352       -4.02552       -0.60641
H          5.47839       -3.97133       -1.91308
