20

C          0.99852       -0.04181       -0.12996
C          2.33749       -0.02196       -0.01419
C          3.11523       -1.26935        0.31705
C          4.06655       -1.13272        1.51001
C          3.57453       -0.20339        2.62266
C          3.71689        1.26378        2.31667
C          3.57392        1.86264        1.12215
C          3.13272        1.24921       -0.17955
H          0.42879       -0.95571        0.00897
H          0.43372        0.86085       -0.34280
H          3.69360       -1.57621       -0.56387
H          2.42407       -2.09671        0.52398
H          5.04887       -0.79279        1.15584
H          4.23157       -2.13325        1.92941
H          4.18372       -0.40716        3.51265
H          2.53851       -0.42734        2.90217
H          3.99847        1.88676        3.16472
H          3.77478        2.93218        1.06967
H          4.00484        1.07288       -0.82015
H          2.52012        1.99375       -0.70476
