18

C          3.43779        0.20444       -1.40902
C          2.52911        0.09090       -0.20145
C          2.80979        1.16855        0.79953
N          2.18431        2.30649        0.82359
N          2.57673        3.07203        1.89779
C          3.90301        3.63417        1.66782
C          3.73472        2.36567        2.47083
C          3.88006        1.03506        1.83153
H          3.15960       -0.53793       -2.16433
H          4.48368        0.03310       -1.13278
H          3.37112        1.19846       -1.86381
H          2.65954       -0.88291        0.28140
H          1.48273        0.17122       -0.51533
H          4.11158        4.55099        2.20726
H          4.30587        3.59888        0.66435
H          3.82420        2.38336        3.54604
H          3.64868        0.21201        2.51139
H          4.85941        0.89522        1.36867
