18

C          1.67116        1.06407       -2.18987
C          2.55052        0.05507       -2.23249
C          3.04260       -0.67463       -1.01271
C          4.55740       -0.57359       -0.83167
C          5.04104       -1.33457        0.39635
N          5.47915       -0.28080        1.30556
N          5.38699        0.96008        0.77446
C          4.94626        0.81544       -0.43160
H          1.33578        1.55046       -3.10075
H          1.25956        1.42715       -1.25185
H          2.92426       -0.27858       -3.19930
H          2.76107       -1.72917       -1.11749
H          2.52905       -0.29980       -0.11725
H          5.10309       -0.86132       -1.73626
H          5.89175       -1.97753        0.14508
H          4.26543       -1.96137        0.84886
H          5.04647       -0.33767        2.22932
H          4.82394        1.65638       -1.12918
