16

C          2.68676       -1.26046       -0.04178
C          2.39159        0.04568       -0.13146
C          3.13211        1.04928       -0.96653
N          2.18829        1.71021       -1.89237
N          2.12973        3.06926       -1.72902
C          2.89949        3.35361       -0.72546
C          3.63409        2.20927       -0.16707
C          4.55377        2.30193        0.79744
H          2.08447       -1.92032        0.57649
H          3.51328       -1.70161       -0.58999
H          1.53728        0.42251        0.42859
H          3.95361        0.59497       -1.53279
H          2.38441        1.46005       -2.86161
H          3.04804        4.36349       -0.31741
H          4.80573        3.25307        1.25517
H          5.08386        1.42096        1.14516
