18

C          1.52774       -0.51324       -1.55806
C          2.52249       -1.30287       -1.13165
C          3.11356       -1.25052        0.24629
C          4.59838       -1.02106        0.17600
N          5.46774       -1.98521        0.11641
N          6.68433       -1.38733        0.14627
C          6.60997        0.02613       -0.19893
C          5.18222        0.35902        0.18692
H          1.12059       -0.62713       -2.55935
H          1.08414        0.24493       -0.92174
H          2.91704       -2.06654       -1.80054
H          2.92914       -2.20279        0.75667
H          2.66554       -0.45400        0.85008
H          7.38996       -1.89956       -0.38467
H          6.76236        0.16457       -1.27505
H          7.34369        0.62695        0.34532
H          4.68898        1.01410       -0.53418
H          5.10602        0.76939        1.19822
