18

C          0.92614       -0.07234        0.07800
C          2.44644       -0.05103        0.06456
C          3.01760       -1.29523       -0.61508
C          4.50836       -1.27147       -0.63083
N          5.30747       -1.26255        0.41643
C          6.58176       -1.24707       -0.08645
C          6.56181       -1.25402       -1.45952
N          5.23695       -1.26949       -1.79498
H          0.53880        0.82479        0.57105
H          0.55090       -0.94647        0.61986
H          0.52522       -0.10031       -0.94017
H          2.81259        0.01728        1.09642
H          2.79044        0.85235       -0.45379
H          2.62994       -1.36795       -1.63869
H          2.68695       -2.19569       -0.08384
H          7.44382       -1.23355        0.56776
H          7.34769       -1.25022       -2.20074
H          4.85493       -1.28120       -2.73053
