19

C          0.97137       -0.09092        0.02405
C          2.51098       -0.06170        0.06076
C          3.02097       -1.49964        0.26531
C          3.02138        0.46176       -1.29351
C          3.08414        0.81729        1.16718
C          2.39112        1.53407        2.06746
C          3.02554        2.32671        3.06473
N          3.52705        2.97789        3.88311
H          0.60744       -0.73378       -0.78559
H          0.55535        0.90950       -0.14304
H          0.55512       -0.48038        0.96067
H          2.64074       -2.16857       -0.51574
H          2.69916       -1.90252        1.23286
H          4.11597       -1.54728        0.23321
H          2.64236       -0.14903       -2.12139
H          4.11645        0.44218       -1.34633
H          2.69872        1.49465       -1.46815
H          4.17484        0.85152        1.21015
H          1.30927        1.54349        2.07953
