15

C          0.99039        0.02399       -0.09660
C          2.51039        0.02399       -0.09660
C          3.81425        0.02399       -0.09660
C          5.23308        0.05243       -0.09399
C          6.05826        1.15584       -0.09251
C          7.39562        0.68633       -0.08822
C          7.34643       -0.69033       -0.08740
N          6.02659       -1.06435       -0.09121
H          0.61727        0.02863        0.93130
H          0.61727       -0.86853       -0.60654
H          0.61728        0.91186       -0.61457
H          5.73442        2.18869       -0.09384
H          8.29487        1.28863       -0.08570
H          8.13247       -1.43334       -0.08427
H          5.68399       -2.01555       -0.09132
