23

C          2.21799        0.29690        2.48864
C          2.62552        1.41911        1.57308
C          2.28218        2.69056        1.84101
C          3.33959        1.03997        0.28717
C          4.89840        0.98745        0.31438
C          5.43265       -0.04649        1.31393
C          5.40366        0.62648       -1.09315
N          5.47612        2.29632        0.66546
H          1.65344        0.65971        3.35446
H          3.08842       -0.24134        2.87094
H          1.57948       -0.41423        1.95458
H          1.73548        2.95512        2.74163
H          2.53083        3.50198        1.16382
H          3.03007        1.74624       -0.49747
H          2.95257        0.06772       -0.04852
H          4.98648       -1.03079        1.13666
H          5.22477        0.24006        2.34999
H          6.52062       -0.15770        1.22858
H          4.99997       -0.33915       -1.41885
H          6.49736        0.55346       -1.12263
H          5.10230        1.37745       -1.83309
H          5.13925        2.56500        1.59129
H          5.11555        3.00724        0.03015
