17

C          1.24279        0.41627       -0.50281
C          2.59603       -0.09538       -0.03704
C          3.04717       -1.25972       -0.84750
N          3.78540       -1.22137       -1.93895
C          3.93894       -2.51615       -2.30726
N          4.64823       -2.83783       -3.38461
C          3.29021       -3.37352       -1.46479
N          2.72636       -2.55719       -0.52318
H          0.93890        1.28268        0.09307
H          0.47091       -0.35420       -0.40024
H          1.27490        0.72074       -1.55462
H          2.54107       -0.37184        1.02222
H          3.33651        0.70861       -0.11872
H          4.90824       -2.08378       -4.00987
H          4.55930       -3.74234       -3.82723
H          3.18782       -4.44753       -1.43906
H          2.17296       -2.84789        0.27014
