17

C          1.14242        0.15535       -0.05993
C          2.62368        0.03953       -0.18098
C          3.25747       -1.03667       -0.66297
C          2.73808       -2.34423       -1.15693
N          3.86792       -3.30460       -1.05829
N          5.05125       -2.50396       -1.04901
C          4.72630       -1.21211       -0.70590
N          5.56947       -0.28086       -0.42842
H          0.88258        1.08361        0.45893
H          0.72961       -0.67377        0.52317
H          0.67042        0.17728       -1.04664
H          3.21763        0.88268        0.16839
H          2.44453       -2.24432       -2.20908
H          1.88314       -2.70883       -0.58122
H          3.85591       -3.91306       -1.87882
H          5.86696       -2.88865       -0.57567
H          6.51863       -0.64299       -0.54549
