15

C          1.39287        0.40777       -0.88645
C          2.28522       -0.01831        0.01702
C          3.09307        0.87939        0.90998
C          4.55757        0.73060        0.74315
C          5.50357       -0.03954        1.38041
N          6.73444        0.21025        0.84448
N          6.58864        1.11383       -0.11502
N          5.28493        1.42075       -0.18592
H          0.83650       -0.30339       -1.49085
H          1.18819        1.46209       -1.04228
H          2.43893       -1.08977        0.13617
H          2.82703        0.65309        1.95007
H          2.81522        1.92863        0.74933
H          5.37081       -0.74956        2.18391
H          4.97891        2.09542       -0.87754
