17

C          3.69751       -0.16668        1.01362
C          2.57891       -0.14588       -0.01572
C          3.09028        0.02292       -1.39891
C          3.35042        1.16978       -2.12262
C          3.23025        2.60939       -1.82417
N          3.80070        0.69430       -3.32293
N          3.82204       -0.64441       -3.34718
N          3.38775       -1.07073       -2.17039
H          3.28802       -0.32138        2.01682
H          4.25186        0.77803        1.01438
H          4.40970       -0.97314        0.80790
H          1.87801        0.66215        0.22365
H          2.01157       -1.08183        0.04933
H          2.87047        2.77590       -0.80419
H          2.52617        3.08791       -2.51239
H          4.20071        3.10598       -1.92338
H          4.10347        1.20028       -4.14704
