13

C          1.09593       -0.01435       -0.08631
C          2.43672       -0.05955       -0.02510
C          3.19672        0.72447       -1.08251
C          3.84864        1.39699       -1.98956
C          3.19672       -0.84356        1.03232
C          4.54070       -0.88146        1.08591
C          2.43672       -1.62907        2.08862
N          1.80624       -2.28072        2.96491
H          0.59041        0.55870       -0.85928
H          0.45302       -0.53509        0.61596
H          4.37799        1.94762       -2.73220
H          5.16732       -0.35291        0.37535
H          5.05935       -1.45046        1.85320
