16

C          1.52937        0.63871       -0.66010
C          2.27091       -0.10309        0.17190
C          3.03910        0.52021        1.29018
N          2.98780        1.79903        1.52942
N          3.81305        2.27568        2.49655
C          4.32550        1.44036        3.57745
C          4.42425        0.00278        3.18256
C          3.83747       -0.46419        2.07555
H          0.98939        0.18250       -1.48254
H          1.45035        1.71639       -0.54535
H          2.34319       -1.17478        0.03187
H          3.49755        3.18183        2.84012
H          3.68158        1.52807        4.46016
H          5.32087        1.80782        3.85196
H          4.98626       -0.66405        3.82939
H          3.88467       -1.50128        1.77832
