21

C          1.04450       -0.03575       -0.05539
C          2.53799       -0.02160       -0.07570
C          3.25263        0.94901       -0.66390
C          4.69650        0.95336       -0.68030
C          5.42150        1.92580       -1.25606
C          6.92245        1.94026       -1.28520
C          7.44324        1.91299       -2.72134
N          7.40191        3.13477       -0.59706
H          0.68884       -0.90723        0.50391
H          0.64128       -0.10331       -1.07050
H          0.64997        0.85923        0.43514
H          3.03866       -0.84971        0.42013
H          2.73948        1.77451       -1.15321
H          5.20397        0.12503       -0.19005
H          4.91606        2.75967       -1.73794
H          7.31784        1.06414       -0.75750
H          7.09716        2.77917       -3.29770
H          7.10523        1.00964       -3.24154
H          8.53906        1.91456       -2.73940
H          7.15761        3.96226       -1.13783
H          8.41956        3.11540       -0.56366
