23

C          0.90368        0.04889       -0.10884
C          2.44197       -0.10255       -0.01793
C          2.97200       -0.14705       -1.46694
C          2.97469        1.17147        0.67100
C          2.89908       -1.36934        0.75784
C          2.02498       -2.24815        1.29206
C          4.40589       -1.57891        0.87060
N          4.81284       -2.75239        1.63813
H          0.62675        0.95198       -0.66582
H          0.44768        0.13332        0.88444
H          0.44459       -0.80004       -0.63009
H          2.59158        0.69791       -2.05329
H          2.66192       -1.06845       -1.97366
H          4.06490       -0.09079       -1.50774
H          2.59402        2.07477        0.17928
H          4.06739        1.23362        0.63634
H          2.66683        1.21163        1.72215
H          0.94972       -2.13546        1.22629
H          2.35779       -3.14418        1.80815
H          4.86737       -0.70550        1.34142
H          4.83238       -1.68252       -0.13175
H          4.54278       -2.60944        2.61008
H          5.82918       -2.81056        1.63570
