11

C          1.14494       -0.05149        0.07359
C          2.34655       -0.03971        0.07428
C          3.77298       -0.02315        0.07519
N          4.35092        1.17642        0.07372
C          5.67824        1.11939        0.07486
N          6.41584        0.00934        0.07720
C          5.70575       -1.11842        0.07847
N          4.38013       -1.20820        0.07756
H          0.08022       -0.06038        0.07305
H          6.21179        2.06393        0.07380
H          6.26260       -2.04943        0.08042
