19

C          0.92949       -0.01380        0.43786
C          2.41879       -0.04193        0.54649
C          3.17930        1.06159        0.47518
C          4.63737        1.12022        0.58860
N          5.44862        0.42089       -0.40175
C          5.40964        1.87546       -0.47341
C          6.61809        2.60067       -0.08465
C          6.64943        3.82527        0.45570
H          0.54872       -1.02212        0.25095
H          0.60295        0.62394       -0.39036
H          0.48583        0.34982        1.36953
H          2.89064       -1.01126        0.69133
H          2.68190        2.02273        0.35252
H          5.02831        1.11087        1.60123
H          4.85190        0.00938       -1.11875
H          4.87591        2.28774       -1.32418
H          7.56372        2.09375       -0.26206
H          5.73863        4.38069        0.65433
H          7.59290        4.29526        0.71316
