16

C          1.56062        1.07814       -0.47567
C          2.38995        0.12010       -0.03997
C          3.18762        0.18811        1.23491
C          4.65876        0.08782        0.98202
N          5.28040       -1.10090        0.99150
N          6.56290       -0.80068        0.73204
C          6.78713        0.53349        0.56733
C          5.56620        1.14328        0.72089
H          1.01429        0.95472       -1.40593
H          1.40858        1.99937        0.07755
H          2.50799       -0.78880       -0.62750
H          2.86808       -0.63026        1.89186
H          2.97731        1.11960        1.77516
H          7.23328       -1.56058        0.68402
H          7.77338        0.92067        0.35707
H          5.35065        2.20017        0.65382
