15

C          0.99317        0.09348       -0.01568
C          2.48285        0.05087        0.00874
C          3.24517        0.03353       -1.09856
C          4.66931       -0.00613       -1.11411
N          5.49120       -0.03023       -0.05503
N          6.69463       -0.06386       -0.64453
C          6.58092       -0.05930       -1.99681
N          5.31175       -0.02309       -2.32792
H          0.60850        0.17941        1.00593
H          0.58461       -0.82333       -0.45084
H          0.63240        0.95831       -0.58078
H          2.96160        0.03589        0.98639
H          2.76427        0.04675       -2.07259
H          7.52862       -0.08807       -0.06955
H          7.42735       -0.08242       -2.66729
