15

C          1.19457        0.00347        0.09590
C          2.39453        0.00329        0.11393
C          3.92643        0.00310        0.12640
C          5.12705        0.00318        0.12083
C          6.57311        0.00341        0.09185
C          7.28203        1.03805        0.99823
N          8.30353        0.00386        1.29462
C          7.28248       -1.03080        0.99837
H          0.12947        0.00367        0.07474
H          6.97250        0.00340       -0.93230
H          6.71586        1.35688        1.88245
H          7.66967        1.92482        0.48884
H          8.64729        0.00401        2.25389
H          6.71647       -1.34981        1.88263
H          7.67054       -1.91749        0.48909
