17

C          1.00514       -0.24368       -0.13975
C          2.47443        0.13705       -0.08470
C          2.92956        0.66253       -1.42989
N          2.80308        1.93468       -1.66054
N          3.16430        2.43907       -2.92229
C          3.68071        1.62727       -3.78187
N          3.93879        0.30078       -3.61972
C          3.43952       -0.35204       -2.43591
H          0.67566       -0.63633        0.82612
H          0.82214       -1.00755       -0.90207
H          0.38498        0.62510       -0.38664
H          3.08282       -0.73093        0.18830
H          2.63295        0.90966        0.67536
H          3.96284        2.00121       -4.78000
H          4.09674       -0.26810       -4.44155
H          4.24398       -0.93307       -1.97427
H          2.62258       -1.03230       -2.69440
