23

C          1.55977       -0.77726       -1.06046
C          2.15110        0.04262        0.07411
C          2.74472        1.34180       -0.37203
C          1.99403        2.53318       -0.93253
N          0.55841        2.50630       -1.16708
C          2.50239        2.56190        0.49044
C          3.65735        3.41863        0.90124
C          3.32113        4.90316        0.87504
H          1.24276       -1.75652       -0.68656
H          2.28605       -0.93443       -1.86314
H          0.68039       -0.28897       -1.48941
H          2.95050       -0.54446        0.54228
H          1.38716        0.19521        0.84472
H          3.73774        1.18488       -0.78567
H          2.54251        3.13019       -1.65648
H          0.04899        2.12234       -0.37379
H          0.33639        1.91410       -1.96545
H          1.75977        2.50810        1.28157
H          3.95681        3.13452        1.91662
H          4.52743        3.23064        0.25792
H          2.37232        5.11508        0.37322
H          4.11177        5.45821        0.35940
H          3.26001        5.29918        1.89456
