23

C          0.95137       -0.11158       -0.26742
C          2.38013        0.04745        0.22150
C          3.00633        1.32529       -0.32187
C          2.40482        2.69310        0.08980
N          3.77802        3.21805        0.30306
C          4.24224        3.91086       -0.89834
C          4.26777        1.81998        0.43671
C          5.63553        1.49019       -0.13526
H          0.54721       -1.07670        0.05036
H          0.89422       -0.05523       -1.35865
H          0.30814        0.67412        0.14447
H          2.97348       -0.81408       -0.10845
H          2.38577        0.04120        1.31638
H          3.15572        1.25054       -1.40930
H          1.81452        2.66805        1.01379
H          1.80246        3.19287       -0.67807
H          3.70341        4.85899       -1.00629
H          4.10643        3.34591       -1.82717
H          5.30317        4.16535       -0.80120
H          4.26199        1.51511        1.49442
H          5.70546        1.68883       -1.20857
H          5.85349        0.42767        0.00894
H          6.41836        2.05909        0.37632
