15

C          0.90344       -0.02180       -0.03219
C          2.39703       -0.02084       -0.04153
C          3.12672       -0.55724       -1.03310
C          4.62410       -0.58940       -1.04949
C          5.13794        0.14942       -2.27444
C          5.57871        0.78317       -3.32521
C          6.09552        1.53005       -4.56240
N          6.48846        2.09279       -5.49798
H          0.53718        0.47487        0.87206
H          0.51403       -1.04459       -0.03200
H          0.50613        0.51966       -0.89589
H          2.89026        0.44079        0.81127
H          2.62017       -1.02463       -1.87586
H          4.96756       -1.62882       -1.08712
H          5.05059       -0.12891       -0.15142
