18

C          3.31327       -0.50133        1.06236
C          2.40866        0.03017       -0.03819
C          2.81730        1.39444       -0.48072
C          2.43945        2.64837       -0.05971
N          1.56764        2.91025        0.91886
C          3.11922        3.60802       -0.83376
C          3.91324        2.91768       -1.72223
N          3.72662        1.57775       -1.49926
H          2.97793       -1.49385        1.38127
H          3.30594        0.15760        1.93750
H          4.34851       -0.58995        0.71583
H          1.37353        0.05175        0.32168
H          2.42751       -0.66054       -0.88989
H          1.17790        2.18340        1.50779
H          1.37873        3.85510        1.23519
H          3.04367        4.68427       -0.76118
H          4.58979        3.26253       -2.49181
H          4.18403        0.83416       -2.01019
