16

C          0.96908       -0.05098        0.01607
C          2.46634        0.00052        0.08357
C          3.13071        0.39130        1.18210
C          3.19959       -0.41045       -1.14181
N          2.64421       -0.81290       -2.24425
N          3.66992       -1.12046       -3.18891
C          4.80950       -0.89354       -2.62712
C          4.69291       -0.40238       -1.23324
H          0.50889        0.25842        0.96071
H          0.62716       -1.06864       -0.19856
H          0.59583        0.61732       -0.76659
H          2.59391        0.69051        2.07803
H          4.21281        0.43118        1.24164
H          5.78489       -1.04024       -3.10859
H          5.11005        0.60190       -1.14435
H          5.15763       -1.10375       -0.53857
