17

C          0.97116       -0.07225       -0.06868
C          2.49170       -0.08128       -0.05359
C          3.06888        0.56103       -1.31498
C          4.55517        0.56933       -1.31455
N          5.27720        1.69731       -1.35082
N          6.52917        1.21344       -1.34748
C          6.53176       -0.14396       -1.30884
N          5.29655       -0.58459       -1.29335
H          0.58032       -0.54091        0.83994
H          0.58421       -0.62629       -0.92985
H          0.58511        0.95111       -0.11615
H          2.84213       -1.11654        0.03663
H          2.84758        0.45220        0.83644
H          2.69200        1.58714       -1.40874
H          2.72275        0.01524       -2.20073
H          7.31188        1.85636       -1.37423
H          7.43321       -0.73879       -1.29440
