16

C          0.96448       -0.01753        0.13432
C          2.45339       -0.12387        0.14509
C          3.23866        0.60163        0.95789
C          4.65830        0.55708        1.01354
C          5.52993       -0.18346        0.25084
N          6.77197        0.15871        0.71132
C          6.60421        1.07114        1.71454
N          5.33213        1.33187        1.91849
H          0.56924       -0.44731       -0.79154
H          0.63690        1.02589        0.18068
H          0.53412       -0.57067        0.97413
H          2.89121       -0.82989       -0.55605
H          2.77023        1.29134        1.65707
H          5.38925       -0.89365       -0.55012
H          7.65709       -0.19430        0.37381
H          7.43585        1.50550        2.25156
