20

C          0.99304        0.13719       -0.09440
C          2.47499        0.05277       -0.09216
C          3.24581       -1.04908       -0.08960
C          4.70860       -0.66081       -0.08524
C          5.40810       -1.16640        1.17859
C          5.41797       -1.16977       -1.34215
C          4.60797        0.84922       -0.08747
C          3.32057        1.22513       -0.09137
H          0.53703       -0.85841       -0.09450
H          0.63806        0.66854       -0.98333
H          0.63573        0.66924        0.79320
H          2.88543       -2.06763       -0.08919
H          5.40483       -2.26192        1.22017
H          4.91831       -0.80159        2.08978
H          6.45234       -0.83434        1.21183
H          5.41326       -2.26535       -1.38194
H          6.46309       -0.83963       -1.36679
H          4.93689       -0.80558       -2.25819
H          5.45441        1.52028       -0.08612
H          2.95504        2.24110       -0.09369
