20

C          0.94914        0.02715       -0.02842
C          2.43944        0.12213        0.03796
C          3.11851        0.98608        0.81535
C          2.51335        2.03640        1.69706
N          3.42550        3.17152        1.57556
C          4.77145        2.59214        1.45234
C          4.61294        1.16317        0.88236
N          5.30089        0.98210       -0.38967
H          0.65879       -0.81870       -0.65996
H          0.51969        0.93246       -0.46798
H          0.51987       -0.13831        0.96438
H          2.98211       -0.57495       -0.59494
H          2.48456        1.68125        2.73382
H          1.50451        2.33140        1.39661
H          3.36726        3.76953        2.39603
H          5.25088        2.54304        2.43787
H          5.39483        3.23481        0.82090
H          5.02005        0.45144        1.61107
H          4.87325        1.61326       -1.06772
H          5.13179        0.03913       -0.72936
