19

C          1.01198       -0.09332        0.03389
C          2.53198       -0.09332        0.03389
C          3.83583       -0.09332        0.03389
C          5.27350       -0.24288       -0.06905
C          5.73609       -1.58764       -0.67427
C          5.91840       -0.82798       -1.99465
N          5.77547        0.45434       -1.27654
C          7.08921        1.03766       -1.01593
H          0.63884       -0.64504        0.90118
H          0.63900       -0.56863       -0.87759
H          0.63883        0.93364        0.07794
H          5.78187        0.00808        0.86974
H          6.67032       -1.97038       -0.24752
H          5.00475       -2.40175       -0.70130
H          5.11143       -1.00442       -2.71692
H          6.87003       -1.00321       -2.50864
H          7.51960        1.41626       -1.95003
H          7.80581        0.33309       -0.57528
H          6.99127        1.89114       -0.33722
