16

C          1.59007       -0.84275       -0.29052
C          2.34188        0.22252        0.01767
C          3.22943        0.95068       -0.88807
N          2.66053        1.57967       -2.07631
C          3.08768        2.45613       -0.98104
C          4.29816        3.31951       -1.17983
C          4.51176        3.96865        0.11969
N          4.67185        4.48751        1.14490
H          0.97563       -1.32585        0.46280
H          1.57898       -1.25719       -1.29400
H          2.31946        0.57497        1.04817
H          4.20982        0.50672       -1.03007
H          1.64415        1.46534       -2.08143
H          2.27002        2.96160       -0.47609
H          4.11122        4.06457       -1.95914
H          5.17823        2.73419       -1.46728
