21

C          0.92413        0.03841        0.04932
C          2.44344        0.03550        0.04883
C          3.01681       -1.22918        0.69114
C          4.54395       -1.19249        0.67248
N          5.10326       -2.38085        1.27561
C          6.42292       -2.63439        1.40825
N          6.69516       -3.79553        2.01299
N          7.39588       -1.88997        1.02662
H          0.54963        0.95565       -0.41662
H          0.53119       -0.00823        1.06971
H          0.52911       -0.81323       -0.51321
H          2.80263        0.92012        0.58798
H          2.80071        0.12059       -0.98431
H          2.65851       -2.11621        0.15349
H          2.65866       -1.31807        1.72456
H          4.89507       -0.30968        1.21567
H          4.89460       -1.11167       -0.36276
H          4.45388       -3.06712        1.63342
H          6.00290       -4.45503        2.31821
H          7.67330       -4.03164        2.11156
H          7.02503       -1.04500        0.59432
