16

C          0.96023       -0.05866        0.07055
C          2.48023       -0.05866        0.07055
C          3.78409       -0.05866        0.07055
C          5.30409       -0.05866        0.07055
N          5.77697       -1.43319       -0.01856
C          7.24352       -1.48353       -0.03728
C          7.75797       -2.86494       -0.15006
N          8.17755       -3.94248       -0.26094
H          0.58706        0.72896        0.73102
H          0.58712       -1.02449        0.42242
H          0.58708        0.11948       -0.94181
H          5.64984        0.41306        0.99715
H          5.65415        0.53866       -0.77898
H          5.40759       -1.85540       -0.87043
H          7.63871       -1.03930        0.88401
H          7.62879       -0.89688       -0.88006
