22

C          1.01243       -0.12559        0.03647
C          2.53100       -0.06715       -0.05238
C          2.96481        0.72281       -1.28814
C          4.48894        0.80946       -1.42319
N          5.04265        1.54321       -2.57046
C          4.13714        2.15640       -3.53053
N          6.39799        1.59053       -2.64646
C          6.94501        2.22059       -3.63081
H          0.70033       -0.69048        0.91998
H          0.58820       -0.61326       -0.84736
H          0.58652        0.88066        0.10719
H          2.93113       -1.08671       -0.09664
H          2.92949        0.40219        0.85445
H          2.54310        1.73284       -1.21844
H          2.54381        0.23498       -2.17557
H          4.88680       -0.21318       -1.45457
H          4.88610        1.26735       -0.50814
H          3.07440        2.02644       -3.32619
H          4.30294        1.73740       -4.52980
H          4.30324        3.23865       -3.57072
H          8.04441        2.25786       -3.69090
H          6.40660        2.73899       -4.43968
