20

C          2.91421        1.46876        0.22744
C          2.53931        0.01152       -0.01140
C          3.04398       -0.92233        1.09870
C          2.58336       -2.34119        0.85079
C          1.84862       -3.05923        1.71207
C          4.57983       -0.91747        1.19162
N          5.35075       -1.20869        0.10550
N          5.19321       -0.64281        2.29965
H          2.56616        2.08691       -0.60619
H          3.99754        1.60003        0.30761
H          2.45301        1.84616        1.14544
H          2.93176       -0.29887       -0.98775
H          1.44552       -0.05641       -0.07640
H          2.64226       -0.56905        2.05810
H          2.86453       -2.80288       -0.09374
H          1.52936       -2.65865        2.66889
H          1.54780       -4.07476        1.47233
H          4.97545       -1.86759       -0.56298
H          6.31227       -1.39917        0.37037
H          4.51762       -0.44157        3.04344
