20

C          1.20497       -0.76175       -0.19228
C          2.25159        0.06660       -0.08119
C          3.06820        0.53937       -1.24877
C          4.56716        0.19893       -1.15978
C          5.14956        1.61362       -1.21207
C          4.30830        2.35690       -2.29699
C          3.17811        2.07057       -1.25177
C          4.29086        2.45047       -0.21416
H          0.64981       -1.07392        0.68717
H          0.88041       -1.14845       -1.15304
H          2.52830        0.41416        0.91192
H          2.64627        0.17942       -2.19530
H          4.89246       -0.39993       -2.01721
H          4.84547       -0.32431       -0.23903
H          6.23067        1.74380       -1.20582
H          4.21895        1.86733       -3.27162
H          4.55875        3.41208       -2.45926
H          2.27448        2.67803       -1.30213
H          4.19436        2.05463        0.80037
H          4.53659        3.51696       -0.14446
