23

C          0.91863        0.02341       -0.00554
C          2.44043        0.05137        0.01488
C          2.94245        0.66404        1.32022
C          4.47127        0.64415        1.42589
N          4.96758        1.24879        2.66792
C          4.58606        0.48798        3.85372
C          5.10390        1.16930        5.08208
C          4.32348        1.63008        6.06780
H          0.55682       -0.42549       -0.93534
H          0.50831        1.03555        0.06928
H          0.52690       -0.56580        0.83093
H          2.81007        0.62732       -0.84076
H          2.82036       -0.97102       -0.08925
H          2.49696        0.09652        2.14372
H          2.58069        1.69610        1.40573
H          4.89532        1.20985        0.58458
H          4.85351       -0.37934        1.32791
H          4.60064        2.19511        2.75190
H          5.00702       -0.52267        3.80705
H          3.49939        0.39458        3.93368
H          6.18463        1.26504        5.16567
H          3.24113        1.54780        6.02668
H          4.75585        2.10115        6.94621
