21

C          1.32416        0.76990        0.65056
C          2.17620       -0.04940        0.02167
C          3.00246       -1.10426        0.70607
C          4.49688       -0.84432        0.50381
C          5.39846       -1.82806        1.25727
N          5.25727       -3.19407        0.73972
C          6.12336       -4.14412        1.43914
C          4.63893       -4.13151        1.67474
H          0.75559        1.51071        0.09537
H          1.17111        0.72273        1.72407
H          2.28858        0.03542       -1.05764
H          2.72444       -2.07827        0.28830
H          2.77418       -1.13622        1.77829
H          4.73862        0.16945        0.85001
H          4.73848       -0.87025       -0.56717
H          5.20048       -1.75110        2.33459
H          6.43690       -1.50661        1.10606
H          6.77502       -3.77415        2.22099
H          6.53769       -4.93769        0.82902
H          4.26560       -3.76298        2.62185
H          4.05190       -4.92596        1.22944
