22

C          0.83016       -0.12692        0.11643
C          2.36090       -0.10308        0.14993
C          2.92726        1.23649       -0.35552
C          3.56191        1.25998       -1.75012
C          4.19908       -0.03857       -2.26930
C          5.72799        0.00412       -2.21444
C          3.70372       -1.29172       -1.60574
C          2.90210       -1.31695       -0.53772
H          0.41323        0.72049        0.67346
H          0.44614       -1.03931        0.58809
H          0.44232       -0.09093       -0.90627
H          2.64694       -0.18510        1.20770
H          3.68548        1.57296        0.36401
H          2.14962        2.01210       -0.32318
H          4.29830        2.07579       -1.77356
H          2.78699        1.56473       -2.46543
H          3.93018       -0.11842       -3.33118
H          6.09631        0.05767       -1.18485
H          6.11275        0.87056       -2.76331
H          6.15791       -0.89022       -2.68110
H          4.04021       -2.23798       -2.02426
H          2.59757       -2.28174       -0.13051
