21

C          0.88037       -0.44271        0.85215
C          2.36875       -0.46153        0.97596
C          3.11504        0.65496        1.04968
C          4.62018        0.66964        1.11988
N          5.15299        1.39398       -0.02982
C          5.14725        1.25982        2.41194
C          4.84867        2.69558        2.75157
C          5.90233        0.53306        3.25809
H          0.50588       -1.46662        0.75003
H          0.56930        0.11515       -0.03738
H          0.41601       -0.00334        1.74003
H          2.84839       -1.43635        0.98669
H          2.61077        1.61912        1.04027
H          4.98534       -0.36138        1.03109
H          4.75195        2.32664       -0.05855
H          4.83740        0.92186       -0.87488
H          4.16268        3.16127        2.03864
H          5.77120        3.28644        2.75359
H          4.38425        2.76709        3.74143
H          6.16273       -0.49878        3.04493
H          6.29834        0.96242        4.17323
