24

C          1.04149       -0.15193        0.03709
C          2.55398        0.02813        0.12474
C          3.05082        1.35172        0.76191
C          2.53153        2.57335       -0.02039
N          2.57519        1.45779        2.15886
C          4.61880        1.33887        0.74961
N          5.20685        2.50690        1.42984
C          6.66215        2.46853        1.36480
H          0.81134       -1.11080       -0.43924
H          0.57391        0.63077       -0.56621
H          0.57661       -0.15715        1.02680
H          2.96061       -0.05180       -0.89247
H          2.96405       -0.82334        0.68324
H          1.43870        2.64092        0.00418
H          2.84029        2.52367       -1.07063
H          2.91345        3.51480        0.39126
H          1.55632        1.47612        2.16810
H          2.85758        2.37128        2.51653
H          4.96578        1.30644       -0.29128
H          4.97575        0.42558        1.24389
H          4.92218        2.46603        2.40869
H          7.01677        2.42970        0.33078
H          7.06162        1.60899        1.91350
H          7.06997        3.37688        1.81869
