19

C          1.03873        0.05513       -0.07390
C          2.55873        0.05513       -0.07390
C          3.86259        0.05513       -0.07390
C          5.38259        0.05513       -0.07390
C          6.08369        1.18463        0.09192
C          7.58380        1.22954        0.08119
C          8.10096        2.12163       -1.04632
N          8.05833        1.71879        1.37168
H          0.66556       -0.55740       -0.89936
H          0.66562        1.07629       -0.19165
H          0.66557       -0.35344        0.86932
H          5.85965       -0.90959       -0.21418
H          5.55473        2.12314        0.23707
H          7.98858        0.22132       -0.06531
H          7.74373        3.15323       -0.94713
H          7.77155        1.74636       -2.02200
H          9.19666        2.14521       -1.05456
H          7.80607        2.69976        1.47928
H          9.07651        1.69118        1.38620
