15

C          1.08153        0.21251        0.05061
C          2.58431        0.07447       -0.01785
C          3.22954       -0.97852       -0.54172
C          2.50451       -2.15891       -1.12894
C          3.49225       -3.19419       -1.64174
N          4.31167       -4.05304       -2.06714
C          3.34431        1.25304        0.56848
C          3.99623        2.26401        1.07143
H          0.54524       -0.63980       -0.37429
H          0.76135        1.10609       -0.49625
H          0.76100        0.31406        1.09320
H          4.31862       -0.98520       -0.54506
H          1.87796       -1.84455       -1.97102
H          1.87569       -2.63928       -0.37109
H          4.53095        3.08885        1.48179
