16

C          0.63258        0.28794       -0.28513
C          1.96504        0.47104       -0.93669
C          2.25784       -0.09484       -2.12105
C          2.98325        1.36911       -0.30696
N          3.35557        1.50909        0.92410
N          2.79690        0.69146        1.85185
C          3.73035        2.29332       -1.14561
C          4.27567        3.02002       -1.92819
H         -0.12990        0.84960       -0.83830
H          0.59572        0.64294        0.74435
H          0.34703       -0.76964       -0.27998
H          3.21454        0.04615       -2.61529
H          1.53297       -0.71532       -2.63861
H          3.23250        0.84431        2.76374
H          2.92745       -0.29630        1.62571
H          4.71730        3.64664       -2.66954
