23

C          0.87257        0.01284       -0.45874
C          2.28109        0.59972       -0.54403
C          3.13893       -0.18876       -1.54046
C          2.95844        0.77566        0.83370
N          3.25450       -0.46208        1.56678
C          3.96032       -0.11666        2.83744
C          3.10252       -1.18392        3.53070
C          2.09901       -0.90932        2.39482
H          0.35084        0.13796       -1.41390
H          0.28089        0.51827        0.31100
H          0.88987       -1.05815       -0.23194
H          2.17578        1.61639       -0.94870
H          2.75257       -1.19780       -1.71457
H          4.18072       -0.27386       -1.21649
H          3.14417        0.32529       -2.50983
H          3.91341        1.28947        0.65098
H          2.35884        1.47355        1.43473
H          3.78833        0.89779        3.22270
H          5.03695       -0.31056        2.83251
H          2.75844       -0.95044        4.54448
H          3.53838       -2.18940        3.51834
H          1.35779       -0.14403        2.64491
H          1.58100       -1.79685        2.02094
