21

C          0.98662       -0.01539        0.17308
C          2.50178        0.12435        0.05137
C          3.01159       -0.02103       -1.39353
C          2.49360        1.04291       -2.36436
N          3.03011        0.80341       -3.70193
C          3.03910        1.40888        0.67800
N          2.31861        2.56162        0.66741
N          4.21708        1.44675        1.21228
H          0.65949       -0.99486       -0.19147
H          0.44859        0.75031       -0.39326
H          0.67457        0.07584        1.21953
H          2.93798       -0.70398        0.62743
H          2.73248       -1.01642       -1.76409
H          4.10973        0.00901       -1.38518
H          2.78919        2.04530       -2.04092
H          1.40191        1.01427       -2.42397
H          4.04738        0.87599       -3.67433
H          2.71571        1.54734       -4.32395
H          1.31315        2.49113        0.75308
H          2.72281        3.25793        1.28671
H          4.67437        0.53152        1.14288
