18

C          2.86997       -0.08032       -1.59681
C          2.58648        0.10224       -0.12881
C          1.72279        1.03956        0.29846
C          3.29732       -0.83103        0.82293
N          4.73877       -0.65256        0.70870
C          5.48490       -1.55693        1.59210
C          6.97905       -1.33065        1.42867
N          8.21857       -1.14293        1.29308
H          2.27512        0.59904       -2.21701
H          2.63169       -1.10343       -1.90492
H          3.92388        0.11498       -1.81823
H          1.21250        1.69914       -0.39890
H          1.49997        1.17730        1.35134
H          3.01722       -1.86131        0.57451
H          2.97669       -0.64320        1.85502
H          4.96890        0.31463        0.93956
H          5.26404       -2.60098        1.34402
H          5.21653       -1.38207        2.64001
