15

C          1.01064        0.06950       -0.10014
C          2.51218        0.05217       -0.00230
C          3.19279       -0.14376        1.14288
C          2.57466       -0.35802        2.40507
N          2.08000       -0.53374        3.43889
C          3.28969        0.26729       -1.27518
N          4.64249        0.27754       -1.35461
N          2.71876        0.46427       -2.42350
H          0.51239       -0.09408        0.86005
H          0.66375       -0.71870       -0.77673
H          0.66422        1.03753       -0.47739
H          4.27295       -0.14925        1.17284
H          5.28907        0.16284       -0.59323
H          5.02370        0.44455       -2.27858
H          1.70006        0.45490       -2.36465
