20

C          1.61606       -0.92747        0.88908
C          2.46452       -0.01544        0.01570
C          2.88414        1.21421        0.76977
C          4.16074        1.55586        0.99813
N          4.70463        2.64695        1.67913
C          3.85021        3.65016        2.32112
C          6.07849        2.81422        1.78561
N          6.76112        3.73609        2.37247
H          1.29086       -1.80371        0.31958
H          0.72104       -0.40969        1.25128
H          2.18118       -1.27823        1.75931
H          1.88259        0.29229       -0.86071
H          3.33302       -0.57224       -0.35450
H          2.06783        1.83304        1.12644
H          4.93702        0.89811        0.60490
H          2.78042        3.46238        2.20582
H          4.04789        4.64034        1.89580
H          4.05277        3.68249        3.39748
H          6.64922        2.01711        1.27736
H          6.14787        4.42282        2.81032
