16

C          1.10575        0.05434       -0.00970
C          2.44151        0.05223       -0.02632
C          3.20151        0.81260       -1.10087
C          3.85344        1.46485       -2.02261
C          4.61344        2.22522       -3.09715
N          5.63457        3.06579       -2.47172
N          6.38540        3.81413       -3.31805
C          7.29234        4.51017       -2.71730
H          0.56132       -0.48872        0.75525
H          0.52867        0.59287       -0.75491
H          3.03170       -0.48269        0.71031
H          3.90656        2.84048       -3.66475
H          5.07745        1.50682       -3.78148
H          5.18016        3.63776       -1.75583
H          7.96059        5.15601       -3.30824
H          7.45136        4.49847       -1.62469
