20

C          1.23195        0.20976       -0.20814
C          2.73165        0.02557       -0.02283
C          3.12587       -1.12633        0.93748
C          2.53464       -2.49523        0.52712
C          3.05446       -2.92289       -0.83571
N          3.48568       -3.27767       -1.96629
N          4.60013       -1.10273        1.02725
C          5.17249       -2.08726        1.93183
H          1.03528        1.14525       -0.74359
H          0.71601        0.25601        0.75528
H          0.79938       -0.60175       -0.80068
H          3.13524        0.96868        0.36952
H          3.19322       -0.11589       -1.00913
H          2.72328       -0.87878        1.92843
H          1.44100       -2.44719        0.49018
H          2.78325       -3.26720        1.26347
H          4.91516       -0.17230        1.30341
H          5.03549       -3.10656        1.55865
H          4.75238       -2.00550        2.93803
H          6.25316       -1.92367        2.00146
