21

C          1.04426       -0.03943       -0.09209
C          2.50707       -0.07789       -0.08763
C          3.70823       -0.08608       -0.07820
C          5.18064       -0.04968       -0.06164
C          5.78213       -1.24434       -0.80803
C          7.32033       -1.24283       -0.79642
C          7.87142       -2.48532       -1.49664
N          7.84764       -0.04437       -1.45098
H          0.67441        0.71569        0.60846
H          0.62696       -1.00735        0.20069
H          0.66390        0.20842       -1.08771
H          5.53257       -0.04802        0.97691
H          5.51370        0.89116       -0.51508
H          5.41414       -1.25689       -1.84297
H          5.42363       -2.17373       -0.34524
H          7.66970       -1.24606        0.24276
H          7.51541       -2.55603       -2.53066
H          7.56268       -3.39454       -0.97009
H          8.96720       -2.47306       -1.51788
H          7.55440       -0.02692       -2.42791
H          8.86682       -0.08171       -1.46651
