23

C          3.42107       -2.00160        1.41895
C          2.95562       -0.97480        0.39818
C          3.49195       -1.28107       -0.97027
C          4.27716       -0.44796       -1.67084
C          4.80744       -0.75307       -3.04324
C          6.33770       -0.75486       -3.06405
C          6.86369       -1.06696       -4.46415
N          8.32203       -1.06760       -4.47357
H          3.01705       -1.76161        2.40770
H          4.51359       -2.01821        1.49410
H          3.08223       -3.00833        1.15154
H          3.26342        0.02476        0.72655
H          1.86056       -0.97491        0.35527
H          3.20598       -2.23997       -1.39873
H          4.55511        0.51483       -1.24585
H          4.42852        0.00699       -3.73703
H          4.43290       -1.72165       -3.39641
H          6.71656       -1.49877       -2.35100
H          6.71283        0.22356       -2.73567
H          6.49747       -0.32375       -5.18095
H          6.50571       -2.04938       -4.79028
H          8.66907       -0.14962       -4.19838
H          8.65494       -1.22657       -5.42362
