19

C          1.63991       -1.29815        0.38875
C          2.48232       -0.06257        0.11668
C          3.01053        0.55051        1.38317
C          4.32090        0.68138        1.63530
C          4.87762        1.32947        2.86127
N          4.26572        2.32309        3.44544
N          6.10904        0.90173        3.33208
N          6.55453        1.47465        4.54830
H          1.27445       -1.71864       -0.55441
H          0.77079       -1.05672        1.00900
H          2.22286       -2.07103        0.89983
H          1.87388        0.68417       -0.40714
H          3.30334       -0.33170       -0.55898
H          2.26878        0.90168        2.09792
H          5.06488        0.30984        0.93734
H          3.39780        2.54449        2.94956
H          6.36065       -0.07062        3.15857
H          5.81209        2.13086        4.84670
H          7.34061        2.09641        4.34540
