19

C          1.21540       -0.36747        0.26216
C          2.67399       -0.02989       -0.00810
C          2.99976        1.03644       -1.02590
C          2.20685        1.76079       -1.83283
N          0.84506        1.76692       -1.99337
C          4.46194        1.33353       -1.17379
N          5.38926        0.65752       -0.56832
N          6.64727        1.08577       -0.82545
H          1.15254       -1.16548        1.00976
H          0.71161       -0.72537       -0.64102
H          0.67434        0.49519        0.66350
H          3.17378       -0.95834       -0.31328
H          3.11910        0.26628        0.95085
H          2.65232        2.47675       -2.52545
H          0.31102        1.39412       -1.21564
H          0.46510        2.64892       -2.33024
H          4.71941        2.17536       -1.84367
H          7.31935        0.38920       -0.49550
H          6.82803        1.21648       -1.82154
