18

C          0.97239       -0.06187       -0.07356
C          2.49239       -0.06187       -0.07356
C          3.79625       -0.06187       -0.07356
C          5.21872       -0.24911       -0.12328
N          5.87668        0.75925       -0.59227
N          7.19526        0.48017       -0.79099
C          8.07511        0.27674        0.36932
C          7.87300        1.34516       -1.77004
H          0.59925       -0.77470       -0.81415
H          0.59925        0.93592       -0.32061
H          0.59923       -0.34681        0.91407
H          5.63862       -1.22393        0.17776
H          7.55404       -0.22777        1.18673
H          8.46544        1.22001        0.76022
H          8.91483       -0.36576        0.08329
H          7.18802        1.62717       -2.57508
H          8.70826        0.80683       -2.22874
H          8.24881        2.26613       -1.31383
