23

C          2.73066        0.45300       -2.80796
C          2.39615        0.14750       -1.35584
C          3.05212       -1.13564       -0.83022
C          4.56782       -1.13899       -0.85997
C          5.26509       -0.10518       -0.01983
C          5.24176       -2.05961       -1.58109
C          6.72685       -2.19530       -1.70529
N          7.13513       -3.50603       -1.22347
H          2.19378        1.35003       -3.13401
H          2.43609       -0.37388       -3.46110
H          3.80030        0.63923       -2.94347
H          1.30843        0.04245       -1.26198
H          2.67744        1.00450       -0.73361
H          2.65573       -1.98644       -1.39979
H          2.72951       -1.29529        0.20688
H          4.55476        0.51691        0.53341
H          5.86587        0.56021       -0.64828
H          5.91354       -0.58319        0.72227
H          4.67783       -2.79258       -2.15664
H          7.26822       -1.42044       -1.15476
H          7.00385       -2.09683       -2.76042
H          6.92225       -3.56459       -0.22790
H          8.14658       -3.58462       -1.29886
