23

C          0.71026        1.52020       -0.00934
C          2.20404        1.74340        0.18291
C          2.85047        0.52855        0.85094
C          4.29923        0.75859        1.23726
C          5.29075        0.32675        0.43737
C          4.48941        1.44605        2.57719
C          5.91781        1.64027        3.10815
N          5.90778        2.29644        4.41885
H          0.25533        2.37706       -0.51510
H          0.21022        1.39289        0.95683
H          0.52043        0.62658       -0.61259
H          2.35267        2.64898        0.78212
H          2.66992        1.92436       -0.79370
H          2.77290       -0.33504        0.17878
H          2.28565        0.25347        1.75186
H          5.07535       -0.16831       -0.50581
H          6.34123        0.45342        0.67885
H          4.00834        2.43194        2.51895
H          3.92916        0.86721        3.32753
H          6.50371        2.25411        2.41685
H          6.42745        0.67486        3.20919
H          5.30572        3.11917        4.38033
H          5.47868        1.67402        5.10318
