20

C          1.05278        0.26050        1.02836
C          2.54554        0.25276        1.07029
C          3.28863       -0.80600        0.71478
C          4.79258       -0.81922        0.75884
C          5.33349       -1.89786        1.70542
N          6.79303       -1.79676        1.82336
N          7.40074       -2.80076        2.49815
C          8.68931       -2.77891        2.42644
H          0.67760        1.23803        1.34834
H          0.64010       -0.49366        1.70525
H          0.68811        0.07848        0.01295
H          3.02855        1.16426        1.41669
H          2.79948       -1.71475        0.36773
H          5.17393        0.16393        1.06129
H          5.16419       -1.00357       -0.25737
H          5.06134       -2.88820        1.32017
H          4.88180       -1.79215        2.69941
H          7.20911       -1.61154        0.90865
H          9.27433       -3.55688        2.94183
H          9.26159       -2.01484        1.87163
