21

C          0.97509       -0.15506       -0.03280
C          2.49711       -0.07369       -0.03204
C          3.05614        1.30565       -0.45265
C          2.54400        2.40408        0.49883
C          4.61559        1.29913       -0.51047
C          5.18641        0.26576       -1.48388
C          5.12414        2.67028       -0.92487
N          5.54602        3.80776       -1.26865
H          0.65629       -1.18482        0.15916
H          0.56633        0.15076       -1.00091
H          0.53323        0.47090        0.74736
H          2.85680       -0.84529       -0.72023
H          2.86906       -0.33732        0.96564
H          2.67393        1.53739       -1.45685
H          2.86250        2.21227        1.52908
H          1.45199        2.46805        0.48479
H          2.90676        3.39491        0.21105
H          5.01098        1.08778        0.49153
H          4.76226        0.38734       -2.48693
H          4.99069       -0.75658       -1.14830
H          6.27425        0.37088       -1.57149
