21

C          0.90240       -0.05654        0.03144
C          2.42089        0.03718       -0.01716
C          2.97376        0.70262       -1.29500
C          2.47990        2.14492       -1.44162
C          4.51989        0.69099       -1.32797
C          5.09542       -0.71903       -1.36320
C          6.61514       -0.72835       -1.39076
N          7.87588       -0.73608       -1.41363
H          0.59460       -0.65273        0.89726
H          0.51041       -0.54248       -0.86757
H          0.43780        0.92818        0.12950
H          2.79786       -0.98711        0.06134
H          2.77940        0.57494        0.86880
H          2.60936        0.13610       -2.16359
H          2.79700        2.75946       -0.59268
H          1.38807        2.19299       -1.50927
H          2.87603        2.60095       -2.35602
H          4.91361        1.23467       -0.45999
H          4.86682        1.23519       -2.21655
H          4.72694       -1.25933       -2.24259
H          4.80064       -1.28971       -0.47758
