21

C          0.78098       -0.15347        0.23904
C          2.27644        0.11159        0.30000
C          2.68240        1.31618       -0.44066
C          3.11676        2.14892       -1.18680
C          3.71843        2.86192       -2.33056
C          4.21760        4.29460       -2.12294
N          3.16333        5.28719       -1.89610
C          3.68733        6.64215       -2.03907
H          0.54465       -1.08087        0.77033
H          0.43844       -0.26604       -0.79560
H          0.20921        0.65882        0.69978
H          2.79215       -0.74654       -0.14600
H          2.60232        0.16915        1.34336
H          3.02463        2.84093       -3.16924
H          4.58866        2.26578       -2.63464
H          4.74830        4.56510       -3.04580
H          4.94980        4.33408       -1.30632
H          2.79122        5.16072       -0.95149
H          3.89496        6.86530       -3.09142
H          4.60374        6.79347       -1.45879
H          2.94703        7.37003       -1.69250
