20

C          2.91521       -0.97045       -1.00565
C          2.49627       -0.06953        0.14947
C          3.03968       -0.54160        1.49126
C          2.17985       -0.93105        2.44965
N          4.43153       -0.58847        1.66581
C          5.05778       -1.85258        2.07698
C          5.28271        0.48659        1.48011
N          5.01472        1.73249        1.30224
H          2.47923       -0.60565       -1.94170
H          2.57028       -1.99805       -0.85175
H          4.00263       -0.98657       -1.12887
H          1.39942       -0.03884        0.17392
H          2.81372        0.95493       -0.06201
H          1.10557       -0.89948        2.30267
H          2.53127       -1.26426        3.42090
H          4.33547       -2.67324        2.15021
H          5.54168       -1.73582        3.05244
H          5.81473       -2.15309        1.34350
H          6.34776        0.19814        1.53580
H          4.00023        1.85715        1.33532
