20

C          0.97226       -0.07581       -0.06959
C          2.50615       -0.07743       -0.07131
C          3.02446        1.35034       -0.27581
C          3.02405       -0.63500        1.25920
C          3.06601       -0.94331       -1.19160
N          2.29537       -1.57894       -2.01409
N          3.03387       -2.29831       -2.94440
C          2.24326       -2.92270       -3.75088
H          0.57646        0.54882        0.73869
H          0.57385       -1.08830        0.06496
H          0.57391        0.30941       -1.01560
H          2.66367        2.02068        0.51240
H          2.69561        1.75489       -1.24000
H          4.12015        1.38270       -0.26824
H          2.66284       -0.04097        2.10624
H          4.11974       -0.63581        1.29329
H          2.69512       -1.66999        1.40818
H          4.16798       -1.00525       -1.27157
H          2.65861       -3.54586       -4.55715
H          1.14302       -2.86612       -3.67795
