23

C          0.94334       -0.00337        0.03166
C          2.46229       -0.10862        0.04738
C          3.00373       -1.18717        1.01490
C          2.51479       -2.58252        0.59916
N          4.48044       -1.18171        0.98333
C          5.04120        0.08093        1.54580
C          6.12349       -0.78249        2.21582
C          5.05390       -1.88918        2.16677
H          0.63703        0.86324       -0.56450
H          0.54638        0.12706        1.04350
H          0.48152       -0.88701       -0.41542
H          2.85037        0.87556        0.33463
H          2.81774       -0.30010       -0.97289
H          2.62554       -0.97291        2.02363
H          2.81176       -2.82053       -0.42856
H          1.42473       -2.65673        0.66159
H          2.91911       -3.36206        1.25461
H          4.40157        0.61257        2.26171
H          5.40795        0.78995        0.79809
H          6.45220       -0.46227        3.20692
H          6.99945       -0.97438        1.58447
H          4.42029       -1.92305        3.06234
H          5.43487       -2.89440        1.96332
