23

C          0.93857        0.18139        0.15251
C          2.47494        0.12298        0.08877
C          3.00236        1.56001       -0.02440
C          3.07029       -0.62863        1.31415
N          2.59350       -2.01414        1.39160
C          4.58865       -0.65588        1.36730
C          5.35080       -1.28637        0.23172
C          5.26190       -0.14667        2.41458
H          0.53363        0.74392       -0.69590
H          0.60062        0.67269        1.07208
H          0.49373       -0.81718        0.11702
H          2.74897       -0.40545       -0.83407
H          2.74389        2.14776        0.86347
H          2.57165        2.06262       -0.89662
H          4.08970        1.58225       -0.14555
H          2.70336       -0.12408        2.21814
H          2.70135       -2.46066        0.48292
H          1.59624       -2.01949        1.59120
H          4.71536       -1.92192       -0.39090
H          6.16182       -1.91740        0.61006
H          5.78191       -0.51276       -0.41210
H          4.74641        0.30004        3.25936
H          6.34643       -0.17676        2.46001
