18

C          1.08872        0.02498       -0.03878
C          2.39258        0.02498       -0.03878
C          3.91258        0.02498       -0.03878
C          4.42487       -1.41358       -0.23298
C          4.31029       -1.65772       -1.74550
C          4.65149       -0.32019       -2.33884
C          3.61289        0.71748       -2.63232
C          4.34056        0.73547       -1.30369
H          0.02330        0.02686       -0.04109
H          4.30593        0.48946        0.86970
H          3.87715       -2.16039        0.35069
H          5.48228       -1.46155        0.05363
H          3.29046       -1.95436       -2.01850
H          4.99313       -2.44435       -2.07656
H          5.60814       -0.28628       -2.84493
H          2.57210        0.42187       -2.67639
H          3.86157        1.49820       -3.34729
H          5.09227        1.49622       -1.12616
