22

C          3.47799       -0.93381       -0.19591
C          2.40939        0.14634       -0.13605
C          2.94723        1.56315        0.05060
C          1.95063        2.72695        0.12161
C          0.47756        2.36866        0.08462
N          4.23803        1.72750        0.14112
N          4.70315        2.97553        0.37163
C          6.14587        3.16230        0.30529
H          3.01488       -1.92047       -0.29731
H          4.08865       -0.93991        0.71316
H          4.14466       -0.78209       -1.05091
H          1.73978       -0.07070        0.70370
H          1.82014        0.12002       -1.05788
H          2.16116        3.39131       -0.72507
H          2.14782        3.28549        1.04396
H          0.21401        1.85366       -0.84420
H         -0.12724        3.28006        0.14286
H          0.20075        1.72765        0.92668
H          4.24214        3.70132       -0.17571
H          6.68849        2.22658        0.47040
H          6.45600        3.87546        1.07471
H          6.43290        3.56148       -0.67160
