19

C          0.98905       -0.03041        0.00645
C          2.48518        0.06147        0.09686
C          3.14665        0.98143        0.83037
C          2.54022        2.02440        1.71551
N          3.40261        2.26380        2.86481
C          3.28241       -0.91854       -0.73248
N          4.64465       -0.96098       -0.74746
N          2.73550       -1.81870       -1.49138
H          0.46920        0.72785        0.59630
H          0.64207       -1.00781        0.35615
H          0.66484        0.11132       -1.03048
H          4.23178        1.03231        0.77944
H          1.55418        1.73489        2.08806
H          2.43508        2.95522        1.14990
H          3.38563        1.44456        3.47081
H          3.00609        3.02365        3.41776
H          5.10204       -0.80554        0.14124
H          4.96246       -1.81215       -1.20103
H          1.71612       -1.77219       -1.46933
