20

C          1.04473        0.01763        0.13941
C          2.53577        0.11174        0.11126
C          3.24226        1.06471       -0.51142
C          2.71617        2.17810       -1.26038
C          3.68639        2.78799       -1.94707
C          5.00788        2.11233       -1.75841
C          4.75503        1.14235       -0.58878
C          5.35611        1.67567        0.71419
H          0.74037       -0.90439        0.64527
H          0.63190       -0.01176       -0.87437
H          0.61012        0.85883        0.68768
H          3.07309       -0.68213        0.62711
H          1.67429        2.46347       -1.27662
H          3.53719        3.63886       -2.59619
H          5.80412        2.83228       -1.54549
H          5.27139        1.56524       -2.67124
H          5.19242        0.16169       -0.81307
H          4.95636        2.66278        0.97570
H          6.44366        1.76955        0.62302
H          5.14670        1.00049        1.54999
