19

C          1.55690        1.24648       -0.30122
C          2.40863        0.03263        0.03581
C          2.98090        0.12469        1.42395
C          4.30000        0.13316        1.67246
N          4.90484        0.22667        2.90070
C          6.22334        0.27860        3.22796
N          6.44875        0.47921        4.54416
N          7.24283        0.16391        2.45033
H          1.17202        1.16769       -1.32354
H          2.13910        2.17157       -0.23120
H          0.69974        1.33107        0.37514
H          3.20650       -0.05964       -0.71082
H          1.79667       -0.87266       -0.03823
H          2.27234        0.17662        2.24201
H          5.00021        0.07199        0.84211
H          4.25802        0.35725        3.67024
H          5.82802        0.02289        5.19199
H          7.42502        0.29647        4.75838
H          6.91889        0.03075        1.49233
