17

C          2.91133       -1.06957        1.09433
C          2.45412       -0.06466        0.03846
C          2.94904        1.35343        0.37331
C          2.51046        2.42785       -0.63010
C          1.04805        2.54191       -0.71338
C         -0.14697        2.61780       -0.79782
C          2.97396       -0.49947       -1.32210
N          3.40521       -0.86017       -2.45080
H          2.50131       -0.81525        2.07732
H          4.00354       -1.09788        1.17609
H          2.57363       -2.08130        0.84105
H          1.35855       -0.08371        0.00534
H          4.04623        1.35914        0.42068
H          2.59042        1.62920        1.37373
H          2.92545        2.21912       -1.62273
H          2.93009        3.39172       -0.31827
H         -1.20845        2.67885       -0.88433
