21

C          1.62708       -1.38355        0.78143
C          2.22519       -0.20404        0.02937
C          2.03081       -0.35517       -1.45096
C          2.97110       -0.57833       -2.38418
C          4.45151       -0.72901       -2.17732
N          5.12576       -0.72119       -3.48666
C          6.55395       -1.00392       -3.41944
C          5.58408       -2.03943       -3.92257
H          1.59729       -1.17375        1.85536
H          2.22816       -2.28678        0.63045
H          0.60415       -1.59793        0.45196
H          3.28089       -0.09514        0.29576
H          1.72195        0.71749        0.34617
H          1.00054       -0.26357       -1.79407
H          2.63159       -0.65843       -3.41622
H          4.64555       -1.64763       -1.60651
H          4.82869        0.11602       -1.58894
H          7.01139       -1.14348       -2.44982
H          7.16685       -0.48845       -4.15249
H          5.38573       -2.90321       -3.30027
H          5.53393       -2.22154       -4.98918
