21

C          1.02667       -1.26068        0.37253
C          2.52011       -1.21908        0.37716
C          3.25189       -0.90307       -0.70253
C          4.75959       -0.87346       -0.71815
C          5.32602       -1.89313       -1.71623
N          6.79493       -1.90526       -1.65613
C          7.38008       -2.82544       -2.63088
C          7.45282       -1.33600       -2.82890
H          0.65973       -1.55373        1.36100
H          0.65848       -1.99656       -0.35032
H          0.60735       -0.27806        0.13683
H          3.01340       -1.47133        1.31315
H          2.75117       -0.64800       -1.63445
H          5.15541       -1.07641        0.28535
H          5.08436        0.13840       -0.99030
H          4.94303       -1.67376       -2.72243
H          4.95760       -2.89211       -1.44877
H          6.71565       -3.40066       -3.26423
H          8.27335       -3.34431       -2.30563
H          6.84965       -0.88431       -3.60626
H          8.40637       -0.85273       -2.65067
