20

C          1.03670       -0.07184       -0.52613
C          2.55033       -0.03361       -0.36530
C          2.99038        0.47248        0.99723
C          2.45408       -0.25029        2.20123
C          2.94145       -1.68938        2.24493
C          3.35952       -2.92382        2.28241
C          4.33356        1.17069        1.10671
C          3.07518        1.98623        1.15169
H          0.76970       -0.35400       -1.54918
H          0.59007        0.90515       -0.31311
H          0.58062       -0.80493        0.14686
H          2.95813        0.61546       -1.15236
H          2.96558       -1.03126       -0.54195
H          1.35915       -0.23783        2.21554
H          2.77926        0.23382        3.13117
H          3.70295       -3.93201        2.31139
H          4.95311        1.26101        0.22102
H          4.90161        1.06944        2.02516
H          2.83739        2.61536        0.30237
H          2.79592        2.43369        2.10103
