17

C          1.04095       -0.36225        0.02116
C          2.53517       -0.12113       -0.07754
C          2.94689        1.25608       -0.64482
C          2.42758        2.44419        0.16960
C          2.79502        3.72845       -0.45308
C          3.12313        4.76598       -0.96029
C          4.46689        1.25608       -0.64482
N          5.72785        1.25608       -0.64482
H          0.85423       -1.42881        0.19892
H          0.52645       -0.07885       -0.90032
H          0.60643        0.18939        0.85886
H          2.96251       -0.90377       -0.72083
H          2.98361       -0.27186        0.91379
H          2.60188        1.33212       -1.68424
H          2.81240        2.41013        1.19408
H          1.33557        2.39674        0.22828
H          3.44279        5.67950       -1.41237
