20

C          1.14607       -0.13382       -0.15637
C          2.64491        0.10121        0.00357
C          3.06818        1.28156        0.85766
C          2.21845        2.12727        1.46844
C          4.56338        1.44356        1.02421
N          5.07092        2.19624       -0.09733
C          6.37271        2.54523       -0.21842
N          6.85348        3.32653       -1.11515
H          0.97004       -1.01366       -0.78434
H          0.65687        0.72096       -0.63517
H          0.66683       -0.31557        0.81122
H          3.07882        0.22070       -0.99693
H          3.08166       -0.80883        0.43398
H          1.13992        2.03662        1.38465
H          2.58161        2.95291        2.07488
H          5.04911        0.46241        1.07760
H          4.79370        1.96573        1.96052
H          4.38578        2.68114       -0.66227
H          7.03849        2.09406        0.53770
H          6.10425        3.63751       -1.73623
