21

C          0.97040       -0.09498        0.10657
C          2.49983       -0.02140        0.04934
C          3.02608       -1.33211       -0.55946
C          3.00673        1.22476       -0.73639
C          2.49574        2.55918       -0.13959
N          2.92613        3.73477       -0.90602
C          4.52673        1.22476       -0.73639
C          5.83059        1.22476       -0.73639
H          0.64197       -1.03517        0.56371
H          0.53364       -0.03746       -0.89601
H          0.55330        0.71378        0.71325
H          2.87205        0.03316        1.08159
H          2.72269       -1.43241       -1.60680
H          2.63980       -2.19796       -0.01018
H          4.11801       -1.39172       -0.51319
H          2.66824        1.14995       -1.77870
H          2.84468        2.66567        0.89471
H          1.40236        2.57405       -0.12204
H          3.94616        3.74459       -0.96000
H          2.66330        4.57960       -0.40086
H          6.89626        1.22033       -0.74046
