18

C          3.18007        1.29206       -0.63836
C          2.64295       -0.04085       -0.23111
C          1.40635       -0.24355        0.24444
C          3.55969       -1.21240       -0.30544
N          4.73466       -1.14499       -0.84125
N          5.43216       -2.28462       -0.66113
C          6.22538       -2.54991       -1.85950
C          6.83919       -1.86992       -0.67704
H          2.41306        2.07253       -0.58045
H          3.55216        1.26961       -1.66763
H          4.00164        1.58656        0.02406
H          0.70789        0.58263        0.35089
H          1.05141       -1.22368        0.54582
H          3.18051       -2.14739        0.15038
H          6.01119       -1.97505       -2.75028
H          6.48081       -3.58759       -2.02844
H          7.06682       -0.81249       -0.75685
H          7.48927       -2.43442       -0.02314
