20

C          1.00894       -0.01942       -0.03371
C          2.52040        0.02559       -0.05354
C          3.12009        0.91413        1.00932
C          3.23394       -0.64769       -0.99332
C          2.59299       -1.51050       -2.05374
C          4.74868       -0.62597       -1.04209
N          5.54155       -0.40199        0.04083
N          5.42691       -0.85113       -2.12620
H          0.58285        0.59746        0.76373
H          0.65075       -1.04088        0.13041
H          0.60346        0.36301       -0.97660
H          2.35934        1.52366        1.50870
H          3.84096        1.61751        0.58169
H          3.59563        0.31441        1.79158
H          1.51129       -1.60692       -1.94381
H          3.00162       -2.52511       -2.00847
H          2.76767       -1.09705       -3.05132
H          5.22527       -0.83037        0.90141
H          6.50348       -0.63558       -0.18016
H          4.81593       -1.00186       -2.93014
