22

C          0.99010        0.00941       -0.05122
C          2.52510       -0.02477       -0.10277
C          3.02565       -1.08988        0.88669
C          4.47528       -1.52403        0.68119
C          5.49921       -0.40663        0.50864
C          5.23924        0.83392        1.35879
C          4.16036        1.72997        0.82282
C          3.04955        1.37058        0.15996
H          0.57005       -0.97718       -0.27575
H          0.58537        0.71105       -0.78949
H          0.62887        0.31372        0.93793
H          2.81173       -0.31058       -1.12283
H          2.40378       -1.99181        0.80478
H          2.89286       -0.73461        1.91740
H          4.53402       -2.18292       -0.19466
H          4.76642       -2.14228        1.54003
H          5.55527       -0.12452       -0.55068
H          6.48797       -0.81104        0.76111
H          6.16692        1.42075        1.37137
H          5.02676        0.57038        2.40093
H          4.34464        2.79607        0.95469
H          2.42914        2.18184       -0.22383
