22

C          1.07495        0.17131       -0.03508
C          2.60544        0.06829       -0.03514
C          3.18952        1.45264        0.27687
C          3.11234       -0.99988        0.96293
C          2.56542       -2.39839        0.67043
C          4.62231       -1.10954        0.90721
N          5.33680       -0.89736        1.96537
N          6.66170       -1.06693        1.76364
H          0.73914        0.97306       -0.70144
H          0.69293        0.38508        0.96903
H          0.61010       -0.75313       -0.38892
H          2.92860       -0.20475       -1.04846
H          2.92499        1.77551        1.28921
H          2.80861        2.20119       -0.42643
H          4.28064        1.45560        0.19081
H          2.82311       -0.71668        1.98302
H          2.78549       -2.70252       -0.35977
H          1.48370       -2.44975        0.82127
H          3.02304       -3.14104        1.33411
H          5.06964       -1.39389       -0.06575
H          7.16829       -0.84806        2.62516
H          7.02781       -0.42869        1.05404
