22

C          0.96309        0.04680       -0.02958
C          2.49299        0.10282       -0.00744
C          3.01529        1.06994        1.07051
N          2.57092        2.44002        0.84684
C          3.04529       -1.29523        0.28420
C          2.80659       -2.42252       -0.75352
N          4.16290       -2.92248       -0.42876
C          4.54107       -1.54333       -0.04931
H          0.52959        1.02408       -0.26374
H          0.56399       -0.28334        0.93570
H          0.60912       -0.65774       -0.79010
H          2.83849        0.43904       -0.99387
H          4.11128        1.05350        1.08719
H          2.67879        0.74615        2.06234
H          2.92391        2.77737       -0.04700
H          2.97038        3.04675        1.56215
H          2.78762       -1.62435        1.30330
H          2.70032       -2.08499       -1.79137
H          1.99506       -3.11645       -0.51796
H          4.67804       -3.31393       -1.21492
H          4.93320       -0.95292       -0.88644
H          5.23419       -1.47074        0.79274
