16

C          3.03800       -1.02456        0.35589
C          2.50970        0.13381       -0.05088
C          3.31253        1.29103       -0.55522
N          2.68474        2.30791       -1.06803
N          4.68057        1.31440       -0.50390
C          5.45182        2.09653       -1.44608
C          6.89105        1.86551       -1.22851
C          8.06810        1.68313       -1.06985
H          2.38905       -1.83192        0.68349
H          4.10241       -1.22432        0.36711
H          1.42885        0.25575       -0.05878
H          1.67143        2.17380       -1.03658
H          5.15814        0.50095       -0.14985
H          5.22841        3.16412       -1.33654
H          5.19280        1.79954       -2.46922
H          9.11512        1.53146       -0.93801
