21

C          1.06995        0.16361       -0.25730
C          2.53841       -0.23270       -0.12208
N          2.91629       -1.44725       -0.86915
C          4.35777       -1.70013       -0.69144
C          4.84863       -2.94036       -1.45691
C          3.93581       -4.11489       -1.28880
C          2.68891       -3.94921       -0.82498
C          2.10932       -2.60937       -0.46327
H          0.88868        1.09613        0.28567
H          0.40207       -0.59168        0.16656
H          0.79740        0.32326       -1.30547
H          2.77240       -0.34936        0.94418
H          3.13707        0.61010       -0.48897
H          4.59095       -1.82370        0.37459
H          4.93402       -0.83766       -1.04764
H          5.84917       -3.20474       -1.09697
H          4.93514       -2.71560       -2.52682
H          4.30470       -5.10205       -1.54620
H          2.04451       -4.81363       -0.69460
H          1.93837       -2.61086        0.62067
H          1.13142       -2.53761       -0.95515
