13

C          1.08805        0.10708        0.04864
C          2.59012        0.06043        0.02626
C          3.28282        1.19018        0.56486
N          3.82127        2.11699        1.00612
C          3.26641       -0.99491       -0.47674
N          2.72357       -2.13280       -1.01826
C          4.78641       -0.99491       -0.47674
N          6.04737       -0.99491       -0.47674
H          0.72082        1.03904        0.49280
H          0.68331       -0.71856        0.64314
H          0.68317        0.04909       -0.96732
H          1.72071       -2.25794       -1.07905
H          3.33129       -2.86785       -1.36982
