22

C          2.43128       -1.55164       -0.09698
C          2.49389       -0.02503       -0.06765
N          3.32424        0.42143        1.06021
C          3.00550        0.51873       -1.41838
C          3.12367        2.06106       -1.54189
C          4.42336        1.76876       -2.30779
N          4.49755        0.46613       -1.59230
C          4.88023       -0.58547       -2.52953
H          1.98633       -1.94345        0.82440
H          3.42451       -1.99923       -0.20351
H          1.81889       -1.89782       -0.93637
H          1.47697        0.35147        0.09513
H          4.30025        0.25459        0.80012
H          3.13982       -0.15055        1.88185
H          2.42904        0.09968       -2.25787
H          3.28025        2.60468       -0.60323
H          2.33331        2.55708       -2.11134
H          5.25080        2.45316       -2.09801
H          4.28090        1.71481       -3.39480
H          5.93618       -0.47543       -2.79772
H          4.29469       -0.58762       -3.45646
H          4.77212       -1.56894       -2.06235
