24

C          0.91317       -0.01108        0.10271
C          2.45449        0.07607        0.03487
C          2.96118        0.56268        1.40470
N          2.92007       -1.31857       -0.17049
C          2.96185        0.99407       -1.16939
C          2.43012        2.43578       -1.09326
C          4.50268        1.06223       -1.25522
N          2.52982        0.41257       -2.46295
H          0.58915       -0.66047        0.92637
H          0.47975       -0.42370       -0.81468
H          0.45934        0.96888        0.28077
H          2.60659       -0.08969        2.21235
H          2.59855        1.57074        1.62982
H          4.05417        0.57368        1.46307
H          2.57150       -1.90875        0.58617
H          3.93571       -1.35108       -0.09290
H          2.78624        2.94539       -0.19280
H          1.33660        2.47674       -1.09735
H          2.77190        3.03004       -1.95015
H          4.93792        1.51686       -0.35997
H          4.82345        1.67452       -2.10758
H          4.95636        0.07449       -1.38758
H          1.51450        0.46380       -2.53265
H          2.72709       -0.59361       -2.39814
