18

C          1.01580        0.09625       -0.22685
C          2.53010        0.06449       -0.11301
N          3.00789       -1.18684       -0.69512
C          4.27772       -1.39357       -0.67092
C          5.36449       -0.46746       -0.10654
C          6.55986       -1.39504       -0.22459
C          6.21198       -2.54743       -0.81164
N          4.89135       -2.52902       -1.13060
H          0.61740        1.00961        0.22536
H          0.56714       -0.76333        0.28273
H          0.70131        0.06434       -1.27510
H          2.80266        0.12577        0.94632
H          2.94980        0.92810       -0.64017
H          5.15995       -0.20637        0.93398
H          5.47904        0.42263       -0.72967
H          7.54621       -1.15429        0.14179
H          6.82544       -3.41426       -1.01450
H          4.36896       -3.35022       -1.39646
