22

C          1.08740       -0.07529        0.05249
C          2.60775       -0.08684        0.03643
C          3.14987       -1.16040       -0.90767
C          4.67960       -1.16447       -0.92570
N          5.16919       -2.12518       -1.91688
N          6.51368       -2.28636       -1.95938
C          6.90317       -3.25972       -2.71888
C          8.35906       -3.56414       -2.87866
H          0.72108        0.71090        0.72008
H          0.69090       -1.03279        0.40506
H          0.68568        0.11536       -0.94813
H          2.97823       -0.26049        1.05332
H          2.96941        0.89918       -0.27736
H          2.76480       -0.98331       -1.91971
H          2.78253       -2.14515       -0.59055
H          5.05520       -1.43231        0.06940
H          5.05524       -0.16402       -1.16945
H          4.65939       -3.00564       -1.83284
H          6.19829       -3.90211       -3.27636
H          8.97258       -2.87983       -2.28748
H          8.62301       -3.47515       -3.93453
H          8.54428       -4.59337       -2.55793
