17

C          1.09048        0.42657       -0.56116
C          2.43852       -0.09917       -0.10191
N          2.85574       -1.25470       -0.86231
C          3.63734       -1.28181       -1.97330
N          3.77017       -2.52158       -2.38426
C          3.03487       -3.23215       -1.47037
C          2.88264       -4.69801       -1.54022
N          2.45927       -2.49127       -0.51422
H          0.80238        1.30302        0.02703
H          0.31054       -0.33388       -0.44737
H          1.12033        0.71714       -1.61681
H          2.40400       -0.38785        0.95432
H          3.20912        0.67113       -0.21441
H          4.06395       -0.40084       -2.43137
H          3.39330       -5.10212       -2.41979
H          1.82511       -4.97205       -1.60610
H          3.30986       -5.17165       -0.65129
