21

C          3.09272        2.06720       -0.16212
C          2.63990        0.61561       -0.13541
C          3.20323       -0.21545       -1.28674
C          4.72761       -0.29877       -1.36881
N          5.46393       -0.38451       -0.30073
N          5.28245       -0.34069       -2.63650
N          6.62000        0.12048       -2.71587
C          7.33472       -0.67632       -3.70506
H          2.62473        2.62081        0.65866
H          2.80888        2.55095       -1.10182
H          4.17706        2.15328       -0.04359
H          1.54494        0.59131       -0.19520
H          2.90329        0.16876        0.82950
H          2.82412        0.18766       -2.23385
H          2.82765       -1.24311       -1.20677
H          4.89179       -0.35743        0.54633
H          4.67703       -0.08807       -3.41501
H          7.04410       -0.03624       -1.78847
H          6.92413       -0.51364       -4.70753
H          7.29831       -1.74692       -3.47427
H          8.38485       -0.37085       -3.72652
