21

C          0.99675       -0.05405        0.01025
C          2.51515        0.13043       -0.04871
C          2.99739        0.19407       -1.52285
N          4.45421        0.25516       -1.65575
N          2.98181        1.30280        0.73070
C          2.24229        2.55485        0.66336
C          4.17018        1.22325        1.42055
N          4.77062        2.13800        2.09108
H          0.71831       -1.03211       -0.39764
H          0.46074        0.69624       -0.58018
H          0.63226       -0.00259        1.04241
H          2.94346       -0.77386        0.40415
H          2.56316        1.06958       -2.02045
H          2.64469       -0.69504       -2.05601
H          4.79424        1.07894       -1.15501
H          4.70738        0.38936       -2.63297
H          1.36656        2.51207        0.01147
H          2.88193        3.35781        0.27828
H          1.89612        2.83572        1.66367
H          4.64722        0.23001        1.35656
H          4.23115        3.00442        2.07406
