21

C          3.14953        0.31834        1.36901
C          2.45101       -0.12918        0.08828
N          2.46678        0.94617       -0.90091
C          3.12997       -1.32180       -0.52930
C          3.11977       -2.65701        0.17105
C          2.30110       -2.46385       -1.07669
C          2.72598       -3.10848       -2.32174
C          2.86244       -4.42649       -2.51605
H          2.66619        1.20595        1.79148
H          4.20572        0.55215        1.19446
H          3.10943       -0.47143        2.12721
H          1.40676       -0.36503        0.32230
H          3.42918        1.23152       -1.07727
H          2.00553        1.76681       -0.51101
H          4.05440       -1.06006       -1.03449
H          2.58745       -2.75475        1.10998
H          4.02513       -3.25297        0.11938
H          1.22346       -2.40589       -0.95646
H          2.91940       -2.44279       -3.16096
H          2.67057       -5.13573       -1.71783
H          3.16887       -4.81797       -3.48078
