22

C          1.01374       -0.15983        0.01574
C          2.53002       -0.07362       -0.01733
N          3.14445       -1.40406        0.05039
C          4.59882       -1.24996       -0.05113
C          5.31946       -2.55947        0.08225
C          5.18576       -3.71283       -0.89211
N          6.34306       -2.83527       -0.93251
C          7.56682       -3.38004       -0.36351
H          0.58671        0.84829       -0.02293
H          0.66263       -0.63772        0.93594
H          0.62750       -0.72132       -0.83958
H          2.86518        0.53394        0.83140
H          2.83020        0.44009       -0.93898
H          2.82755       -1.96008       -0.74209
H          4.96037       -0.59875        0.75468
H          4.85574       -0.76813       -0.99933
H          5.51871       -2.81203        1.11906
H          4.48458       -3.62362       -1.71195
H          5.31695       -4.72342       -0.51827
H          8.18647       -3.79570       -1.16471
H          7.41024       -4.16390        0.38578
H          8.13975       -2.57188        0.10516
