20

C          1.02781       -0.03073       -0.07559
C          2.56802        0.03394       -0.06047
C          3.08135        1.21815       -0.94032
N          2.68598        2.56826       -0.51613
C          3.09584        0.12344        1.40342
N          2.61505        1.27853        2.16679
C          3.08575       -1.23214       -0.65835
C          3.50225       -2.25235       -1.13837
H          0.56907        0.87003        0.34410
H          0.66386       -0.88604        0.50685
H          0.64746       -0.15083       -1.09730
H          2.73793        1.07708       -1.97370
H          4.17793        1.19372       -0.97740
H          1.66717        2.62680       -0.48435
H          2.97790        3.23735       -1.22916
H          4.19334        0.14740        1.39347
H          2.81175       -0.78112        1.95611
H          2.81219        2.11852        1.60709
H          3.16069        1.37079        3.02138
H          3.86905       -3.15896       -1.56173
