22

C          1.06656        0.92425        0.01667
C          2.50806        0.45397       -0.22197
C          3.33923        1.61078       -0.80209
N          2.47704       -0.63327       -1.20255
C          3.14275        0.01137        1.08481
C          2.62164       -1.14424        1.91264
C          3.94468       -1.26688        1.21522
N          5.19531       -1.23875        1.96942
H          0.59191        1.24998       -0.91692
H          1.03633        1.76732        0.71573
H          0.44575        0.12719        0.44286
H          4.39145        1.32296       -0.91905
H          2.96275        1.93235       -1.77837
H          3.31815        2.48165       -0.13512
H          3.42625       -0.83109       -1.51810
H          1.96904       -0.33121       -2.03199
H          3.45139        0.87249        1.67160
H          1.79393       -1.72723        1.52598
H          2.61374       -1.03907        2.99262
H          3.95065       -1.98025        0.39580
H          5.15883       -0.56011        2.72701
H          5.96526       -0.94844        1.36756
