22

C          1.03915        0.06703       -0.07952
C          2.57331        0.02669       -0.06558
C          3.09812        0.69415        1.21570
N          2.99311       -1.37698       -0.06471
C          3.09889        0.75977       -1.28418
C          3.46825        0.20035       -2.45111
C          3.97576        0.95263       -3.63530
N          5.26585        0.40988       -4.03098
H          0.61694       -0.44786        0.79135
H          0.63306       -0.41586       -0.97746
H          0.66820        1.09842       -0.06485
H          2.72234        0.18749        2.11294
H          2.77841        1.74155        1.27781
H          4.19387        0.68092        1.25971
H          2.68649       -1.83080        0.79284
H          4.01228       -1.41628       -0.05833
H          3.15815        1.84313       -1.19162
H          3.37140       -0.87637       -2.58220
H          4.07677        2.02243       -3.42291
H          3.26721        0.84376       -4.46288
H          5.92897        0.55684       -3.27224
H          5.61901        0.93688       -4.82627
