22

C          1.91559        1.36546        0.40983
C          2.46410       -0.02852        0.09532
N          1.39781       -1.01714        0.28172
C          3.03300       -0.11039       -1.33002
C          4.22163        0.80979       -1.56989
C          4.86049        0.20656       -2.80402
N          4.68646       -1.24154       -2.67470
C          3.60815       -1.47854       -1.69624
H          1.48576        1.40122        1.41730
H          1.13503        1.65843       -0.30066
H          2.70899        2.11832        0.37011
H          3.25829       -0.25786        0.81606
H          0.60176       -0.78386       -0.31384
H          1.05095       -0.97024        1.24004
H          2.24719        0.14330       -2.05639
H          4.92064        0.77733       -0.72460
H          3.92304        1.84948       -1.73360
H          5.91503        0.48350       -2.89847
H          4.34110        0.54707       -3.70695
H          5.54557       -1.65655       -2.31326
H          4.02561       -1.98643       -0.81924
H          2.84381       -2.13062       -2.13162
