23

C          1.07005        0.06984        0.16615
C          2.58223        0.06579       -0.02257
N          3.05116       -0.66237       -1.22142
C          2.54544       -0.03049       -2.45751
C          2.87685       -0.80921       -3.72726
C          4.53464       -0.74138       -1.21602
C          5.24901       -1.54383       -0.15805
C          5.20348       -2.04417       -1.56742
H          0.82217        0.40140        1.18193
H          0.64444       -0.92930        0.02739
H          0.57809        0.76093       -0.52447
H          3.00223       -0.41598        0.86912
H          2.95212        1.09942       -0.02738
H          2.93589        0.99069       -2.54774
H          1.45367        0.04420       -2.42404
H          3.95062       -0.97856       -3.84695
H          2.54233       -0.24325       -4.60316
H          2.36734       -1.77868       -3.73923
H          5.04200        0.17008       -1.53094
H          4.66498       -2.08141        0.57886
H          6.18461       -1.14814        0.21946
H          4.58207       -2.90584       -1.77423
H          6.11811       -2.00326       -2.15028
