17

C          1.35362        0.36486       -0.76485
C          2.37307        0.10142        0.05847
N          3.05877        0.93505        0.92992
N          2.50657        2.22662        1.16672
C          3.53301        3.12050        1.71811
C          4.28159        2.52520        2.91625
N          4.71092        1.13673        2.71365
C          4.06981        0.51087        1.78615
H          0.92300       -0.41627       -1.38004
H          0.93533        1.36450       -0.84965
H          2.75339       -0.91919        0.08493
H          1.74608        2.13013        1.83947
H          3.04900        4.05195        2.03484
H          4.24470        3.39304        0.92883
H          3.66195        2.57201        3.81941
H          5.17496        3.13137        3.10615
H          4.35331       -0.53733        1.59950
