19

C          1.07913        0.34364       -0.03329
C          2.53916       -0.07168        0.01932
N          2.97466       -0.70270       -1.21644
C          3.50178       -0.01350       -2.28057
C          3.78673       -0.91674       -3.27802
C          3.43011       -2.19661       -2.79667
C          2.93893       -2.04832       -1.51220
C          2.44374       -3.08648       -0.57044
H          0.78754        0.82679        0.90423
H          0.42571       -0.52086       -0.18937
H          0.89825        1.04920       -0.85124
H          2.71730       -0.76845        0.84423
H          3.17856        0.80247        0.18725
H          3.62591        1.06088       -2.24556
H          4.20631       -0.67925       -4.24686
H          3.52481       -3.13428       -3.32918
H          2.49736       -4.08145       -1.02439
H          1.40108       -2.89935       -0.29619
H          3.05025       -3.10405        0.34071
