22

C          0.55266        1.42306        0.76175
C          2.03100        1.75866        0.89236
N          2.79608        0.52537        1.07346
C          4.25860        0.73458        1.23396
C          4.66602        1.52526        2.45838
C          5.13926       -0.44089        0.86348
C          5.13524        0.77375       -0.01342
N          6.34624        1.59132       -0.10236
H         -0.03536        2.33950        0.65058
H          0.18720        0.89642        1.65092
H          0.36269        0.79110       -0.11218
H          2.15851        2.42155        1.75470
H          2.36675        2.29421       -0.00254
H          2.60614       -0.10122        0.29027
H          4.09744        1.19480        3.33403
H          4.47660        2.59277        2.30532
H          5.72831        1.40764        2.69831
H          4.67556       -1.34114        0.47678
H          6.01502       -0.64753        1.46820
H          4.62320        0.67176       -0.96910
H          6.88467        1.56667        0.76223
H          6.10665        2.56922       -0.25933
