20

C          0.97057        0.14520       -0.03401
C          2.49080        0.09992       -0.01846
C          3.00355       -1.33974       -0.05877
N          4.46884       -1.34470       -0.03161
C          4.98703       -2.71681       -0.06802
C          6.51575       -2.72185       -0.06820
C          7.02244       -4.15437       -0.10747
N          7.44279       -5.34276       -0.14004
H          0.62181        1.18232       -0.00884
H          0.55410       -0.37452        0.83476
H          0.57320       -0.32499       -0.93929
H          2.85304        0.60560        0.88491
H          2.87482        0.65978       -0.87986
H          2.64392       -1.82757       -0.97253
H          2.60823       -1.89375        0.80132
H          4.78714       -0.87117        0.81497
H          4.62564       -3.22515       -0.97113
H          4.61687       -3.28121        0.79734
H          6.90521       -2.23418        0.83284
H          6.90578       -2.18326       -0.93944
