20

C          0.84654        0.06332       -0.01562
C          2.38440        0.03240        0.00798
C          2.87400        1.46667        0.26900
N          2.91061       -0.93260        1.01274
C          2.42644       -2.30023        0.76634
C          4.39797       -0.94417        1.09587
C          5.07500       -1.28624       -0.22133
N          5.63666       -1.57001       -1.31406
H          0.48337        0.85350       -0.68233
H          0.43627        0.25232        0.98222
H          0.42670       -0.87533       -0.39220
H          2.71428       -0.25587       -0.99907
H          2.64297        1.78673        1.29132
H          2.39449        2.17198       -0.41916
H          3.95196        1.56574        0.10991
H          1.34492       -2.37358        0.91681
H          2.86852       -3.00427        1.48052
H          2.65846       -2.65012       -0.24654
H          4.71510       -1.67184        1.85358
H          4.76750        0.02145        1.45674
