18

C          2.24397        1.20892        0.84298
C          2.46657       -0.05728        0.03026
C          3.05334        0.23226       -1.34667
N          2.10296        0.50201       -2.31948
C          4.38901        0.21432       -1.57873
C          5.46929        0.00629       -0.55281
C          4.89567        0.44129       -2.99371
N          5.31599        0.62957       -4.16756
H          1.82415        0.95891        1.82237
H          1.54500        1.88573        0.34034
H          3.18362        1.74747        1.00600
H          1.50823       -0.58133       -0.08297
H          3.09592       -0.75531        0.59320
H          1.17519        0.11989       -2.14746
H          2.39747        0.40392       -3.28953
H          5.09642       -0.10712        0.46648
H          6.14608        0.86913       -0.54656
H          6.05591       -0.88648       -0.79510
