20

C          1.03538        0.04996        0.05090
C          2.57122        0.01019        0.00228
C          3.06569       -1.42748        0.22023
N          3.03534        0.52114       -1.27989
C          2.75903       -0.00277       -2.49690
N          3.17440        0.46932       -3.61584
C          3.13094        0.93582        1.07322
C          4.43053        1.15717        1.32732
H          0.58928       -0.60551       -0.70528
H          0.65543        1.06206       -0.13451
H          0.65951       -0.27569        1.02806
H          2.63353       -2.11696       -0.51371
H          2.79056       -1.79486        1.21582
H          4.15513       -1.50294        0.12346
H          3.59719        1.36174       -1.24289
H          2.12434       -0.90411       -2.48443
H          3.74680        1.29829       -3.44700
H          2.40392        1.45906        1.69354
H          5.21716        0.67110        0.75732
H          4.73439        1.83415        2.12062
