21

C          0.92806       -0.04001        0.06653
C          2.46862        0.00819        0.08409
C          2.97410       -1.23813        0.83256
C          2.95449       -0.01781       -1.37613
N          2.98668        1.22278        0.77035
N          2.14351        2.25606        1.27367
C          4.33311        1.52183        0.85748
N          4.83842        2.55933        1.43497
H          0.56869       -0.93266       -0.45893
H          0.50407        0.83172       -0.44503
H          0.51299       -0.07415        1.07995
H          2.58816       -2.15757        0.37864
H          2.65593       -1.22063        1.88156
H          4.06736       -1.30395        0.82523
H          2.54499       -0.88220       -1.91241
H          4.04477       -0.08490       -1.44704
H          2.64587        0.88889       -1.90863
H          1.25973        1.88974        1.62732
H          1.92484        2.92080        0.52907
H          4.99847        0.78722        0.37635
H          4.01125        3.04985        1.81196
