24

C          0.88535        0.02749       -0.03834
C          2.42076       -0.07028       -0.03411
C          2.97164        1.33776       -0.31551
N          2.94062       -0.62838        1.23579
C          2.39462       -1.95327        1.54619
C          4.41771       -0.65142        1.33792
C          5.17442       -1.46612        0.26340
N          6.62603       -1.39306        0.44588
H          0.53104        0.53429       -0.94334
H          0.51925        0.59245        0.82598
H          0.41388       -0.96026       -0.03293
H          2.70517       -0.71997       -0.87166
H          2.77682        2.01654        0.52383
H          2.50542        1.76767       -1.20899
H          4.04962        1.32615       -0.50407
H          1.31478       -1.91036        1.71763
H          2.81891       -2.34023        2.48010
H          2.59078       -2.68086        0.75168
H          4.69183       -1.03691        2.32997
H          4.79152        0.37985        1.34581
H          4.93793       -1.09752       -0.73936
H          4.87753       -2.51859        0.31004
H          6.93069       -0.42506        0.34347
H          7.08366       -1.91562       -0.30055
