19

C          2.95905        0.36070       -1.55248
C          2.48180        0.03079       -0.13707
C          2.97334        0.99086        0.98483
N          2.51486        2.35719        0.74939
C          2.51697        0.59768        2.37347
C          1.77234       -0.46005        2.73434
C          4.49334        0.99086        0.98483
C          5.79719        0.99086        0.98483
H          2.61545       -0.41438       -2.24615
H          4.05052        0.39288       -1.61838
H          2.55972        1.31731       -1.90016
H          2.81820       -0.99188        0.08420
H          1.38502        0.00299       -0.15125
H          1.50661        2.34197        0.61509
H          2.91508        2.69395       -0.12289
H          2.84281        1.27136        3.16688
H          1.39918       -1.18809        2.02499
H          1.51903       -0.61950        3.77939
H          6.86232        0.99531        0.99125
