19

C          0.86189       -0.02131        0.01802
C          2.39465       -0.02148       -0.00352
N          2.85561        0.47044       -1.31044
C          2.95322        0.81881        1.17840
C          4.49747        0.80156        1.28374
N          4.96472        2.22076        1.21221
C          3.87585        2.90059        1.06052
N          2.69295        2.24207        0.96659
H          0.45756       -0.63175       -0.79638
H          0.45307        0.98983       -0.08738
H          0.49046       -0.43969        0.95936
H          2.73542       -1.05655        0.10642
H          2.87418        1.49327       -1.27399
H          2.20493        0.21619       -2.05013
H          2.51381        0.48606        2.12683
H          4.97684        0.20969        0.49759
H          4.80545        0.38575        2.25057
H          3.82433        3.99870        1.00445
H          1.89415        2.64913        1.43622
