22

C          0.68390        0.67028        0.08812
C          2.09499        0.09538        0.18586
N          2.02478       -1.26876        0.71515
C          2.81388        0.14966       -1.18139
C          4.26674       -0.28889       -1.04629
C          5.22699       -0.27685       -2.26732
C          5.79307       -1.55687       -1.60997
N          4.42653       -1.77522       -1.07414
H          0.18825        0.65341        1.06552
H          0.06323        0.10320       -0.61516
H          0.71168        1.71223       -0.24671
H          2.66122        0.70052        0.90370
H          1.58313       -1.87688        0.02451
H          1.43990       -1.29429        1.54772
H          2.79345        1.18363       -1.54479
H          2.27968       -0.45173       -1.93263
H          4.73935        0.18344       -0.17147
H          4.75150       -0.44742       -3.24086
H          5.91686        0.56653       -2.34101
H          6.54662       -1.37859       -0.83128
H          6.15111       -2.33218       -2.28839
H          4.34439       -2.20035       -0.15009
