17

C          2.78830       -1.40278        0.44644
C          2.39808        0.00310        0.01366
C          2.98642        1.09326        0.91025
N          4.42891        1.13913        0.91934
C          5.24968        1.37154       -0.14019
N          6.49901        1.33967        0.26222
N          6.49464        1.09549        1.61765
C          5.24292        0.98240        1.99809
H          2.31410       -2.14177       -0.20722
H          2.46643       -1.60086        1.47354
H          3.87059       -1.55435        0.38845
H          1.30502        0.08664        0.03294
H          2.70902        0.15805       -1.02595
H          2.64387        0.95839        1.94380
H          2.64223        2.07873        0.57641
H          4.90897        1.54352       -1.15146
H          4.89695        0.79516        3.00444
