23

C          0.95891       -0.25280        0.05831
C          2.47162       -0.09819       -0.03139
C          2.94627        1.32615       -0.39078
N          2.48967        2.29474        0.61286
C          2.76751        3.67696        0.23269
C          4.45534        1.31710       -0.45364
C          5.17667        1.64849       -1.53810
C          6.66743        1.69294       -1.54830
H          0.69738       -1.31577        0.10700
H          0.45925        0.17794       -0.81445
H          0.56372        0.22503        0.96015
H          2.83807       -0.79515       -0.79629
H          2.91260       -0.42399        0.92011
H          2.51724        1.58846       -1.36744
H          2.93318        2.08897        1.50605
H          2.12651        3.99093       -0.59733
H          3.81335        3.84535       -0.04369
H          2.55476        4.33550        1.08076
H          4.97223        1.04340        0.46254
H          4.67093        1.93333       -2.45910
H          7.09671        1.38365       -0.59003
H          7.00391        2.71315       -1.75677
H          7.05812        1.03244       -2.32716
