23

C          0.86024        0.13325        0.07859
C          2.37675        0.08254       -0.06760
C          3.08778       -0.73192        1.03625
N          2.67942       -2.13781        1.02653
C          4.61296       -0.68765        0.98587
C          5.30650       -0.50312       -0.15497
C          5.28209       -0.87141        2.34228
C          6.80759       -0.84054        2.37981
H          0.43760        0.81164       -0.67019
H          0.56798        0.49685        1.06834
H          0.40898       -0.85081       -0.07990
H          2.75407        1.11343       -0.04378
H          2.60507       -0.31874       -1.06194
H          2.77392       -0.30233        1.99680
H          2.87959       -2.52789        0.10697
H          1.67218       -2.20525        1.15027
H          4.82038       -0.39668       -1.11783
H          6.38955       -0.47805       -0.17890
H          4.95498       -1.82662        2.77028
H          4.91832       -0.08105        3.01081
H          7.23690       -1.64945        1.77936
H          7.16044       -0.96630        3.40853
H          7.19648        0.11462        2.01114
