18

C          1.10234       -0.07597       -0.06577
C          2.62275       -0.06802       -0.11765
C          3.13150        0.22908       -1.52915
N          4.58150        0.18952       -1.57168
N          5.23161        0.47529       -2.71220
C          6.51692        0.46797       -2.61910
C          7.16897        0.74123       -3.86813
C          7.73149        0.95660       -4.90749
H          0.75835       -0.29212        0.95065
H          0.69167       -0.84089       -0.73263
H          0.69395        0.89505       -0.36339
H          2.99587       -1.04255        0.21989
H          3.00016        0.68495        0.58515
H          2.76895        1.21336       -1.84840
H          2.73405       -0.51750       -2.22572
H          5.07385        0.11207       -0.68473
H          7.11552        0.26415       -1.71876
H          8.22483        1.14749       -5.83249
