23

C          3.04119       -1.14383       -0.30183
C          2.59744        0.26484        0.07204
N          3.03771        1.21195       -0.95157
C          2.58725        2.59134       -0.63356
C          3.98845        3.08977       -1.09900
C          4.58434        4.20043       -0.24337
C          4.09748        3.41145       -2.59175
C          4.44252        1.64848       -0.72294
H          2.72713       -1.85491        0.46867
H          4.12963       -1.21286       -0.39957
H          2.59184       -1.45771       -1.25072
H          2.96487        0.51759        1.07414
H          1.50187        0.27234        0.12248
H          2.36647        2.78183        0.42536
H          1.73684        2.93981       -1.22841
H          4.06960        5.15084       -0.42378
H          5.64600        4.34228       -0.47231
H          4.50200        3.97711        0.82558
H          3.58785        4.35211       -2.82550
H          3.65008        2.62996       -3.21586
H          5.14682        3.50993       -2.89009
H          4.81089        1.54752        0.30761
H          5.17464        1.18937       -1.39608
