19

C          0.95129        0.06791       -0.15596
C          2.44076       -0.05395       -0.16563
C          3.26587        1.00078       -0.09477
N          4.64771        1.04142       -0.07368
N          5.36589       -0.17869       -0.11747
C          5.43726        2.18609       -0.11953
N          6.72780        2.23956       -0.05744
C          7.24632        3.59980       -0.17478
H          0.49857       -0.92860       -0.17090
H          0.59731        0.61096       -1.03649
H          0.60645        0.57629        0.75033
H          2.84365       -1.05668       -0.24821
H          2.83339        2.00026       -0.03675
H          5.05047       -0.77784        0.64292
H          6.34666        0.03927        0.10072
H          4.82632        3.10404       -0.21478
H          8.33475        3.55957       -0.28384
H          7.02014        4.18767        0.72070
H          6.84818        4.11140       -1.05842
