20

C          2.45101        1.36123        0.28443
C          2.53823       -0.12382       -0.03440
N          2.98633       -0.84117        1.16092
C          3.05308       -2.28201        0.96238
C          4.31829       -1.45736        1.03541
C          5.23832       -1.48349        2.25393
C          6.43150       -0.56525        2.38001
N          5.24560       -0.34638        3.18621
H          2.11353        1.91698       -0.59641
H          3.42425        1.76244        0.58620
H          1.73564        1.55013        1.09247
H          3.19355       -0.26708       -0.90238
H          1.53999       -0.47613       -0.32169
H          2.76367       -2.69206        0.00238
H          2.78404       -2.88664        1.81976
H          4.84041       -1.32527        0.08956
H          5.32992       -2.45046        2.74396
H          6.62926        0.15385        1.59610
H          7.30268       -0.93783        2.90496
H          4.62735        0.37274        2.79880
