22

C          0.74183        0.44348       -0.59497
C          2.21171        0.28190       -0.17091
C          2.84054        1.63895        0.18046
N          2.73755        2.59459       -0.92036
C          2.24639       -0.64332        1.05028
C          3.56674       -1.14162        1.70746
C          2.78391       -2.46407        1.87489
N          2.02794       -2.07429        0.66211
H          0.64037        1.07003       -1.48490
H          0.15085        0.89361        0.21209
H          0.29027       -0.52649       -0.82749
H          2.77506       -0.16110       -1.00335
H          3.89894        1.50696        0.43283
H          2.35355        2.07026        1.06450
H          3.18545        2.21122       -1.75321
H          3.23530        3.45181       -0.68948
H          1.53767       -0.29940        1.81892
H          4.43051       -1.22012        1.03887
H          3.86653       -0.65384        2.63828
H          2.16166       -2.51629        2.77847
H          3.35963       -3.38743        1.78640
H          1.05666       -2.37062        0.63837
