21

C          0.90411       -0.03174        0.05373
C          2.42710       -0.06270        0.12757
C          3.02238        0.92844        1.15580
N          2.54976        0.61450        2.51576
C          4.58050        0.99369        1.12673
C          5.26830       -0.33337        1.46314
C          5.06881        1.46071       -0.23482
C          5.48769        1.86132       -1.40277
H          0.55720       -0.66493       -0.76934
H          0.53743        0.98395       -0.12552
H          0.44717       -0.41010        0.97334
H          2.80675        0.17494       -0.87262
H          2.74237       -1.08786        0.34962
H          2.64861        1.93160        0.91105
H          2.72225       -0.36894        2.72273
H          1.53808        0.73061        2.56102
H          4.90963        1.74145        1.86113
H          5.00919       -1.12248        0.74923
H          5.00647       -0.67897        2.46789
H          6.35887       -0.22153        1.42959
H          5.83240        2.19019       -2.35605
