17

C          0.63821       -0.74405       -0.75771
C          2.10133       -0.64732       -0.34024
N          2.98699       -0.91610       -1.48380
C          2.46183        0.67094        0.30783
N          1.63712        1.39269        1.00507
N          2.37628        2.44457        1.62738
C          3.61733        2.30755        1.29823
C          3.86048        1.18780        0.35743
H          0.33291       -1.79277       -0.83763
H          0.45911       -0.27346       -1.73433
H         -0.03323       -0.25553       -0.04440
H          2.29756       -1.40462        0.42685
H          2.64946       -0.40474       -2.30294
H          2.90343       -1.90144       -1.73628
H          4.43273        2.94896        1.65636
H          4.55805        0.46348        0.77272
H          4.19094        1.57179       -0.61027
