18

C          1.50867        0.29761       -0.42997
C          2.46888       -0.63624       -0.40770
C          3.29426       -0.98403        0.79126
N          4.68472       -0.78021        0.46396
C          5.62588       -1.87453        0.55962
C          6.92469       -1.14550        0.94441
N          6.62454        0.31561        0.97881
C          5.35270        0.37388        0.72725
H          0.93916        0.48562       -1.33520
H          1.26731        0.89199        0.44583
H          2.66836       -1.20770       -1.31240
H          3.10128       -2.03056        1.05335
H          3.01357       -0.38118        1.66499
H          5.73089       -2.37837       -0.40770
H          5.35055       -2.61249        1.31917
H          7.72382       -1.34869        0.22554
H          7.26442       -1.46505        1.93623
H          4.76498        1.30559        0.71944
