20

C          0.86451        0.06922       -0.03304
C          2.40091        0.03713       -0.01400
C          2.92662       -0.16908        1.43248
N          2.48851        0.87516        2.36242
N          2.94970       -1.03131       -0.87597
C          2.66682       -0.79401       -2.28332
C          3.22784       -1.89848       -3.16411
C          3.70907       -2.84589       -3.91966
H          0.47308        0.82782        0.65217
H          0.44379       -0.89852        0.25928
H          0.47575        0.32612       -1.02310
H          2.77759        1.00547       -0.36755
H          4.02260       -0.18844        1.42764
H          2.58658       -1.13881        1.81620
H          2.86825        1.77336        2.06379
H          2.88628        0.69083        3.28231
H          2.54748       -1.92857       -0.60792
H          3.10131        0.15706       -2.61179
H          1.59045       -0.76422       -2.48001
H          4.10766       -3.62012       -4.53344
