17

C          2.85030       -0.68307       -1.34331
C          2.46567        0.01423       -0.03749
C          3.03579       -0.75810        1.15804
C          2.56819       -0.17555        2.47607
N          3.32055        0.76476        3.10264
N          1.45385       -0.53966        3.01690
C          2.97272        1.39864       -0.05024
N          3.39729        2.47857       -0.02264
H          2.48903       -1.71673       -1.35751
H          3.93827       -0.70287       -1.48052
H          2.41973       -0.16427       -2.20728
H          1.37129        0.04047        0.03402
H          4.13264       -0.75556        1.14300
H          2.71135       -1.80527        1.11575
H          3.89039        1.39067        2.54127
H          2.81884        1.24023        3.84647
H          0.98535       -1.26558        2.46705
