20

C          1.04544       -0.35613        1.10190
C          2.43902       -0.23620        0.50824
N          3.06828        0.99790        0.94242
C          4.41651        1.13327        1.16023
N          5.31568        0.46748        0.51409
C          4.88335        2.13306        2.22119
C          5.03945        3.49983        1.62333
C          4.41422        4.59887        2.06629
H          0.57458       -1.29112        0.78261
H          0.40761        0.47577        0.78552
H          1.08515       -0.35110        2.19656
H          2.38175       -0.25281       -0.58465
H          3.02913       -1.10367        0.82560
H          2.47010        1.63529        1.45949
H          4.85663       -0.11911       -0.18464
H          5.84679        1.79972        2.62293
H          4.16103        2.13431        3.04540
H          5.73529        3.58153        0.78952
H          3.72699        4.56895        2.90549
H          4.59599        5.56298        1.60062
