21

C          3.02175       -1.42209       -0.10586
C          2.56549        0.03665        0.00984
N          1.08957        0.06887        0.00829
C          3.13761        0.77784        1.26695
N          2.63976        0.20706        2.53697
C          4.64956        0.83225        1.25094
C          5.40813        1.56465        2.33267
N          5.44899        0.10591        2.24322
H          2.62156       -1.88203       -1.01771
H          2.68324       -2.02895        0.74022
H          4.11162       -1.49339       -0.16125
H          2.90981        0.57162       -0.88370
H          0.73514       -0.53970        0.74552
H          0.74925       -0.33484       -0.86438
H          2.78468        1.81691        1.22421
H          2.78836       -0.79948        2.52271
H          1.62723        0.33492        2.53795
H          5.06279        0.91781        0.25109
H          4.86529        1.97773        3.17448
H          6.31968        2.08098        2.06217
H          4.82038       -0.27990        2.95426
