15

C          1.07544        0.28884       -0.30047
C          2.47029       -0.08367        0.10197
N          2.87975       -1.10222        0.79335
N          1.89241       -1.93131        1.18457
C          2.25040       -2.45733        2.50118
C          2.47634       -3.27074        1.26530
C          3.55795        0.74733       -0.36616
N          4.39993        1.43910       -0.77323
H          0.32203       -0.20395        0.31828
H          0.91690        0.00509       -1.34474
H          0.93954        1.37029       -0.20407
H          1.41480       -2.71809        3.13791
H          3.10751       -2.03623        3.01252
H          1.79498       -4.08272        1.04906
H          3.49339       -3.41648        0.92120
