20

C          1.10232        0.48374       -0.20873
C          2.59327        0.53338       -0.31819
N          3.32855        0.70872        0.73235
N          4.64358        0.89907        0.44545
C          5.44400       -0.19918       -0.09715
C          5.42033        1.69844        1.40898
C          5.80830        3.01092        0.78890
C          7.06256        3.45753        0.65793
H          0.68554        0.05913       -1.12560
H          0.73082        1.50606       -0.09367
H          0.79709       -0.11515        0.65164
H          3.01283        0.48624       -1.34053
H          4.83820       -0.88088       -0.70353
H          5.91299       -0.79715        0.69080
H          6.22242        0.20193       -0.75472
H          6.30446        1.15946        1.77600
H          4.81658        1.90973        2.30214
H          4.98138        3.62649        0.43570
H          7.91513        2.87405        0.99566
H          7.25917        4.42078        0.19661
