21

C          0.94875       -0.23527        0.25130
C          2.45791       -0.10999        0.12905
N          3.08097       -1.02403        1.07775
C          4.36638       -1.10999        1.14869
N          5.23991       -0.39653        0.38299
C          6.67784       -0.34658        0.37053
N          4.94688       -1.94973        2.04875
C          4.23601       -2.86021        2.91172
H          0.45047        0.44905       -0.44313
H          0.61531        0.00399        1.26740
H          0.61954       -1.25481        0.02312
H          2.74363        0.92543        0.34633
H          2.74970       -0.35208       -0.89917
H          4.80961        0.24949       -0.26451
H          7.17027       -1.01712        1.07722
H          7.00962        0.67129        0.59909
H          7.03913       -0.59840       -0.63099
H          5.93932       -2.09233        2.01664
H          3.14835       -2.77286        2.83976
H          4.52373       -2.66944        3.94958
H          4.51263       -3.89038        2.66762
