21

C          0.94770        0.05369        0.07748
C          2.46899       -0.05985        0.03284
N          3.09389        1.07897        0.73271
C          2.92745       -1.40828        0.63730
N          4.38097       -1.48026        0.64208
C          5.08929       -2.54286        1.13829
C          6.48545       -2.29720        1.65578
N          4.64562       -3.75270        1.19427
H          0.60728        0.98665       -0.38418
H          0.57259        0.02691        1.10673
H          0.48482       -0.77516       -0.46958
H          2.79605       -0.01814       -1.01323
H          2.77277        1.10114        1.70160
H          2.75960        1.94923        0.31547
H          2.50694       -2.22920        0.04695
H          2.56101       -1.50267        1.66688
H          4.78881       -0.55396        0.78333
H          6.78286       -1.25428        1.52365
H          7.18825       -2.93994        1.11782
H          6.52171       -2.54817        2.71971
H          3.71663       -3.79748        0.77828
