16

C          1.26471       -0.21669        0.18284
C          2.53994        0.09536       -0.07081
N          3.11146        1.13956       -0.79727
C          2.29264        2.10610       -1.55734
C          2.02448        1.61692       -2.97127
C          1.79445        1.19730       -4.18414
C          4.48580        1.29871       -0.90044
N          5.41984        0.89924       -0.10695
H          1.03532       -1.10066        0.77279
H          0.42627        0.36488       -0.17759
H          3.28907       -0.58657        0.32689
H          2.80349        3.07611       -1.61094
H          1.33867        2.29819       -1.05337
H          1.61059        0.84753       -5.17399
H          4.78183        1.86977       -1.79534
H          5.00841        0.44143        0.70839
