20

C          0.98681       -0.09231        0.10887
C          2.52488       -0.08896        0.08169
N          3.00146       -1.39744        0.53973
C          3.01582        0.18698       -1.35913
C          4.54126        0.19555       -1.51589
N          4.91037        0.47555       -2.90601
C          3.01665        0.94308        1.01681
C          3.42013        1.78086        1.77786
H          0.57399       -0.87493       -0.53832
H          0.58290        0.86837       -0.23334
H          0.60128       -0.25988        1.12262
H          2.58123       -2.12986       -0.02919
H          2.66992       -1.55421        1.49106
H          2.62202        1.15674       -1.69589
H          2.59227       -0.56789       -2.03714
H          4.96981       -0.76933       -1.22605
H          4.99095        0.96633       -0.88226
H          4.58228       -0.28387       -3.50144
H          5.92699        0.47216       -2.98096
H          3.78939        2.52325        2.44633
