22

C          0.72032       -0.04718       -0.33136
C          2.09730        0.16351        0.21658
C          2.30615        0.70034        1.42808
C          3.61015        1.00645        2.11040
C          4.89825        0.65132        1.42316
C          5.40421        1.42037        0.22618
C          6.07924        1.59228        1.56061
C          7.45909        1.07315        1.77630
H          0.76938       -0.31220       -1.39208
H          0.12054        0.86512       -0.24574
H          0.21345       -0.85942        0.19869
H          2.93186       -0.12699       -0.41675
H          1.43072        0.97524        2.01791
H          3.60347        2.07871        2.34323
H          3.60295        0.48907        3.07774
H          5.08386       -0.41757        1.44418
H          4.80291        2.24045       -0.14922
H          5.92252        0.86437       -0.54714
H          5.93625        2.54512        2.05998
H          7.57627        0.04435        1.42225
H          7.70764        1.09753        2.84232
H          8.18384        1.70166        1.24813
