20

C          1.07145        0.05837       -0.07857
N          2.50615       -0.14770        0.05891
C          2.89122       -1.53686       -0.21647
C          4.37591       -1.42790       -0.52279
C          4.41639       -0.19710       -1.41057
N          5.38166        0.83952       -1.00034
C          4.33569        1.50168       -0.18467
C          3.25202        0.68004       -0.91582
H          0.52348       -0.58741        0.61623
H          0.71280       -0.14641       -1.09414
H          0.81172        1.09219        0.17409
H          2.36196       -1.93570       -1.09197
H          2.70019       -2.19173        0.63900
H          4.75316       -2.31729       -1.03613
H          4.94919       -1.29719        0.40400
H          4.40092       -0.41509       -2.48391
H          5.70136        1.41982       -1.77581
H          4.27179        2.58412       -0.33708
H          4.44912        1.31591        0.89011
H          2.69350        1.20406       -1.69832
