18

C          1.45113        0.36012       -1.22537
C          2.45368        1.16483       -0.84896
C          3.12575        1.12099        0.49214
C          4.59293        0.88970        0.37601
C          5.57328        1.80917        0.32586
C          6.84899        1.14301        0.26468
C          6.66283       -0.18355        0.29166
C          5.19382       -0.49059        0.36177
H          0.99870        0.46273       -2.20706
H          1.05703       -0.40898       -0.56886
H          2.80183        1.92767       -1.54314
H          2.68335        0.35056        1.13537
H          2.94322        2.07846        0.99598
H          5.45078        2.88052        0.33353
H          7.79833        1.65358        0.21677
H          7.44338       -0.92902        0.26845
H          4.95556       -1.03851        1.27843
H          4.87184       -1.06467       -0.51197
