20

C          1.03772       -0.02422       -0.02400
C          2.55885       -0.02813       -0.06311
C          3.13161       -1.19950        0.73951
C          4.62355       -1.26705        0.69702
C          5.38873       -2.26815        0.22485
C          6.83963       -1.94035        0.41969
C          6.76654       -0.59446        1.07649
C          5.48484       -0.23200        1.22847
H          0.64563        0.83393       -0.57873
H          0.67168        0.04128        1.00574
H          0.63173       -0.93493       -0.47573
H          2.92323        0.92389        0.34080
H          2.89209       -0.08494       -1.10633
H          2.71189       -2.13685        0.35190
H          2.80727       -1.12451        1.78498
H          5.02758       -3.18459       -0.21657
H          7.36700       -1.88835       -0.53691
H          7.32530       -2.67182        1.07231
H          7.62423       -0.01452        1.38128
H          5.13407        0.68697        1.67374
