18

C          2.13321        2.29380       -2.50918
C          2.72784        1.19694       -2.02006
C          3.21812        1.05042       -0.60702
C          4.68715        0.78419       -0.54331
C          5.31353       -0.40590       -0.48364
C          6.79499       -0.19966       -0.36915
C          6.89937        1.29581       -0.35738
C          5.67747        1.83763       -0.46381
H          1.79127        2.32439       -3.53835
H          1.97563        3.17798       -1.90032
H          2.85658        0.33452       -2.67079
H          2.67380        0.21758       -0.14385
H          2.97489        1.93793       -0.01048
H          4.83317       -1.37268       -0.50619
H          7.32362       -0.62771       -1.22512
H          7.18104       -0.63105        0.55955
H          7.82542        1.84422       -0.27418
H          5.44740        2.89253       -0.48178
