20

C          0.98468       -0.14039       -0.06200
C          2.48680       -0.06705       -0.13263
C          3.24551       -0.76226        0.96560
C          3.13079        0.59995       -1.10980
C          4.62523        0.77763       -1.25216
C          4.78608        1.91945       -2.26001
C          3.42821        2.03808       -2.86947
C          2.52342        1.31101       -2.20927
H          0.64261       -0.71528        0.80441
H          0.57726       -0.62728       -0.95385
H          0.55451        0.86287        0.02865
H          2.57777       -1.28003        1.66144
H          3.82510       -0.04076        1.55107
H          3.92446       -1.51435        0.55022
H          5.07144       -0.14062       -1.65456
H          5.11931        1.01851       -0.30600
H          5.55104        1.68747       -3.00656
H          5.05695        2.85546       -1.75890
H          3.20607        2.67052       -3.71750
H          1.47060        1.27539       -2.45187
