21

C          0.96057       -0.03414        0.11133
C          2.48974        0.04924        0.11058
N          3.01008       -1.13961        0.81688
C          3.09251        0.16979       -1.31868
C          2.56941        1.41789       -2.04360
C          4.62917        0.20538       -1.33789
N          5.34327        0.19882       -0.17979
N          5.29847        0.19664       -2.44830
H          0.57565       -0.17566        1.12818
H          0.60517       -0.86857       -0.50285
H          0.50821        0.88773       -0.26629
H          2.78396        0.92863        0.69619
H          2.70476       -1.98202        0.32531
H          2.57528       -1.19554        1.74026
H          2.79815       -0.71187       -1.90468
H          2.81158        2.32740       -1.48280
H          1.48598        1.37640       -2.18559
H          3.00928        1.52283       -3.04005
H          4.89413       -0.35461        0.55469
H          6.30327       -0.08245       -0.34259
H          4.66626        0.18331       -3.25334
