18

C          1.01399       -0.05567        0.13958
C          2.53229       -0.02643        0.09263
N          3.24305        0.94111       -0.43262
N          2.60184        2.01176       -0.94389
C          3.27270       -1.19630        0.72580
C          2.72438       -2.42401        0.71440
C          4.58996       -0.94377        1.29587
C          5.12084       -1.55128        2.36359
H          0.55134        0.86490       -0.22134
H          0.68429       -0.20802        1.17375
H          0.63836       -0.87397       -0.48360
H          3.26926        2.59799       -1.44975
H          1.87701        1.75817       -1.61966
H          1.75511       -2.63669        0.27337
H          3.24178       -3.27851        1.13834
H          5.17455       -0.16364        0.80196
H          4.59358       -2.31485        2.92368
H          6.11113       -1.27470        2.71399
