21

C          2.73267        1.44683       -0.12811
C          2.44579       -0.04845        0.01481
N          0.98673       -0.24619        0.05744
C          3.06857       -0.88719       -1.12965
N          4.53674       -0.84941       -1.12708
C          5.18099        0.10254       -2.01649
C          5.24802       -1.66220       -0.28398
N          6.52260       -1.76597       -0.16130
H          2.25094        2.01714        0.67435
H          2.36683        1.83640       -1.08471
H          3.80521        1.65260       -0.06355
H          2.85616       -0.39071        0.97207
H          0.55931        0.12526       -0.79095
H          0.59476        0.29853        0.82623
H          2.67806       -0.55323       -2.09927
H          2.74510       -1.93293       -1.02813
H          4.46208        0.61704       -2.66377
H          5.90145       -0.40364       -2.66494
H          5.70904        0.86540       -1.43444
H          4.60814       -2.29626        0.35432
H          6.98942       -1.13738       -0.81467
