24

C          1.04568       -0.03926       -0.13016
C          2.56617        0.02189       -0.13686
N          3.03993        0.50516        1.15877
C          4.51153        0.48840        1.23120
C          5.03109        0.97734        2.61502
N          4.48242        2.31134        2.91304
C          4.65859       -0.01066        3.73822
C          5.19024        0.39204        5.10785
H          0.67608       -0.38842       -1.09964
H          0.60989        0.94684        0.06267
H          0.67964       -0.73106        0.63700
H          2.89635        0.69378       -0.93533
H          2.96149       -0.97863       -0.34542
H          2.66278       -0.09530        1.89221
H          4.91287        1.15275        0.45504
H          4.89546       -0.52021        1.03677
H          6.12415        1.05663        2.56513
H          3.47379        2.25246        2.74047
H          4.80791        2.96067        2.19655
H          5.05895       -1.00078        3.48706
H          3.57093       -0.12223        3.81738
H          6.27816        0.51306        5.08434
H          4.94624       -0.38160        5.84358
H          4.74028        1.32875        5.45195
