19

C          1.01635        0.07120        0.15508
N          2.47231        0.15126        0.23005
C          3.13474       -0.93185       -0.46634
C          4.58082       -1.22991       -0.45558
C          4.94384       -0.20332       -1.46864
C          5.89995        0.90445       -1.40006
C          4.47995        1.19614       -0.97004
C          3.09883        0.47838       -1.05834
H          0.64839       -0.68256        0.85922
H          0.62878       -0.18281       -0.83917
H          0.58323        1.03438        0.44434
H          2.54174       -1.70042       -0.94696
H          4.80619       -2.24325       -0.79831
H          5.04267       -1.05662        0.52139
H          4.73647       -0.54369       -2.48428
H          6.23262        1.35424       -2.32948
H          6.67362        0.86812       -0.63891
H          4.57948        1.60430        0.04210
H          2.45963        0.68286       -1.91078
