17

C          1.01401       -0.06995       -0.00813
N          2.46879       -0.05958       -0.01391
C          3.11515       -1.36876        0.02330
C          4.60938       -1.28164        0.00507
C          5.22095       -0.09617       -0.01060
N          4.50302        1.06334       -0.01148
C          3.14067        1.13922       -0.01066
N          2.52238        2.27649       -0.01060
H          0.61532       -1.09042       -0.02235
H          0.62238        0.44758       -0.89038
H          0.62975        0.42194        0.89176
H          2.78934       -1.95949       -0.84086
H          2.80644       -1.90216        0.93005
H          5.18072       -2.20217        0.00658
H          6.29965        0.01425       -0.02205
H          5.03194        1.92292       -0.01797
H          3.20599        3.03217       -0.00881
