21

C          1.05760        0.01602        0.03703
N          2.50824       -0.06407        0.09663
C          3.17225       -0.85296       -0.94516
C          2.49198       -1.58725       -2.05705
N          3.50943       -2.10619       -2.96729
C          3.19320        0.66936       -0.96797
C          4.44932        1.41541       -0.65552
N          5.43365        1.15205       -1.70277
H          0.62951       -0.73689        0.70561
H          0.61706       -0.12734       -0.95378
H          0.73114        0.99702        0.40061
H          4.04153       -1.38858       -0.58024
H          1.81619       -0.94090       -2.62836
H          1.90896       -2.41948       -1.65294
H          4.01094       -1.32062       -3.38195
H          3.04901       -2.58384       -3.74071
H          2.58879        1.18569       -1.70644
H          4.86164        1.12953        0.31891
H          4.23481        2.48903       -0.62202
H          5.70532        0.16972       -1.64043
H          6.27845        1.67857       -1.48741
