19

C          0.91262        0.18283       -0.52149
C          2.38000        0.57457       -0.45831
N          3.19963       -0.39879       -1.19245
N          4.53831        0.04637       -1.14150
C          5.42665       -0.36138       -0.06333
C          6.78113        0.02844       -0.67265
N          6.59759        0.01782       -2.16129
C          5.30015        0.04508       -2.28043
H          0.30904        0.90411        0.03908
H          0.74695       -0.80737       -0.08468
H          0.54871        0.17049       -1.55431
H          2.68967        0.61584        0.59282
H          2.50150        1.57629       -0.88765
H          2.86111       -0.43784       -2.15701
H          5.37570       -1.44570        0.09071
H          5.22467        0.15601        0.87763
H          7.57133       -0.66752       -0.37524
H          7.07053        1.04097       -0.36576
H          4.76998        0.05300       -3.24623
