15

C          1.05123       -0.09623       -0.17935
N          2.48728       -0.04719       -0.08759
C          3.26899       -1.06893        0.37333
N          4.48564       -0.75611        0.71494
C          4.57842        0.60578        0.50833
N          5.65339        1.23184        0.79929
C          3.26189        1.08753       -0.02963
C          3.02842        2.36600       -0.33078
H          0.69328       -1.12743       -0.26951
H          0.69343        0.45898       -1.05239
H          0.59940        0.33954        0.71862
H          2.82321       -2.07461        0.42703
H          6.28849        0.50896        1.15748
H          3.80561        3.11181       -0.19892
H          2.07449        2.69241       -0.72611
