16

C          3.15565        1.04397        0.64712
C          2.58889       -0.10320       -0.15818
N          1.30649       -0.29974       -0.21131
N          3.41960       -0.91538       -0.88190
C          4.75376       -1.15278       -0.73762
C          5.46082       -1.28329        0.39105
C          5.53189       -1.12126       -2.04296
C          6.19937       -1.09422       -3.16269
H          2.36413        1.71991        0.98253
H          3.85315        1.61408        0.02228
H          3.68345        0.66587        1.52558
H          0.81496        0.38884        0.36755
H          2.94570       -1.52235       -1.54177
H          4.98476       -1.27991        1.36431
H          6.53918       -1.40622        0.36744
H          6.74296       -1.07029       -4.07822
