17

C          1.12758       -0.02051        0.07461
C          2.61862       -0.12316        0.11497
N          3.18664       -1.20402        0.53861
N          4.55174       -1.17456        0.52815
C          5.33590       -2.22874        0.94238
N          4.77169       -3.32203        1.37030
C          6.82382       -2.20340        0.93420
C          7.56122       -1.16332        0.52703
H          0.84226        0.96065       -0.31258
H          0.72565       -0.14400        1.08329
H          0.72540       -0.79962       -0.57768
H          3.18943        0.75780       -0.23029
H          5.03764       -0.34511        0.20483
H          3.76249       -3.11324        1.28722
H          7.29658       -3.11370        1.29276
H          7.14293       -0.23503        0.16162
H          8.64487       -1.23085        0.55520
