19

C          0.74519       -0.05029        0.24363
N          2.18268       -0.05167        0.14717
C          2.82497       -0.90547       -0.78756
C          2.82970        0.79160       -0.79386
C          2.63667        0.95174       -2.32697
C          1.57952       -0.05905       -2.93847
C          2.62861       -1.07527       -2.31921
C          3.64585       -0.06846       -3.03904
H          0.42228       -0.91030        0.84094
H          0.18810       -0.08952       -0.68677
H          0.41588        0.84705        0.77877
H          3.75304       -1.37977       -0.48567
H          3.76007        1.26311       -0.49456
H          2.62838        1.97698       -2.70028
H          1.48677       -0.06326       -4.03313
H          0.56668       -0.05046       -2.54710
H          2.61184       -2.10306       -2.68532
H          3.66656       -0.07267       -4.13475
H          4.67322       -0.07101       -2.66322
