20

C          1.22412       -0.06039       -0.09261
N          2.66122       -0.07247       -0.17019
C          3.41437       -1.28800        0.05224
C          4.73949       -0.73066        0.64182
C          4.86036       -1.06364        2.13165
C          5.96261       -1.22849       -0.12386
N          4.66875        0.76483        0.52156
C          3.45527        0.98773        0.12115
H          0.80826       -1.05938       -0.25981
H          0.80870        0.60655       -0.85428
H          0.89069        0.28667        0.89135
H          3.57255       -1.79533       -0.90548
H          2.90871       -1.97793        0.73532
H          4.91297       -2.14538        2.29157
H          4.00008       -0.67934        2.69227
H          5.75785       -0.60902        2.56571
H          6.04901       -2.31856       -0.06043
H          6.88410       -0.79113        0.27695
H          5.90729       -0.95264       -1.18274
H          3.01856        1.99109       -0.01090
