20

C          1.05775        0.07239        0.03760
C          2.55166        0.12300        0.02267
N          3.17016        1.24598       -0.14568
N          4.54696        1.04946       -0.13195
C          5.17115        2.16571       -0.32377
C          6.67985        2.20809       -0.34164
C          7.15362        2.72396       -1.69410
C          7.16655        3.09994        0.79325
H          0.73199       -0.94544        0.26586
H          0.67305        0.36329       -0.94331
H          0.67270        0.75616        0.79833
H          3.09079       -0.83326        0.14484
H          4.63285        3.11953       -0.47648
H          7.06323        1.19218       -0.18992
H          6.78179        3.73586       -1.89027
H          6.79308        2.07950       -2.50330
H          8.24733        2.74735       -1.74088
H          6.80118        4.12687        0.68070
H          8.26058        3.12833        0.82500
H          6.80839        2.72865        1.75980
