21

C          1.07478        0.00091       -0.06401
C          2.59265       -0.00290       -0.06133
N          3.09678        1.34321        0.04199
C          4.40679        1.68745       -0.07358
N          4.81707        2.91094       -0.12586
N          6.16132        3.04798       -0.22519
C          6.67332        4.40208       -0.01993
C          8.19374        4.39747       -0.00246
H          0.68881       -1.02345       -0.11091
H          0.68698        0.55071       -0.92915
H          0.67779        0.47494        0.83914
H          2.95814       -0.47098       -0.98207
H          2.95618       -0.59667        0.78446
H          2.44475        2.11875       -0.01666
H          5.08948        0.81711       -0.11392
H          6.67305        2.38455        0.35905
H          6.30658        4.80408        0.93181
H          6.31795        5.05787       -0.82244
H          8.57483        3.83567        0.85727
H          8.57393        5.42151        0.07047
H          8.60224        3.94906       -0.91405
