20

C          0.71714        0.02791       -0.07762
N          2.15737        0.12296        0.07010
C          2.96852       -0.85477       -0.62166
C          2.57066       -1.69380       -1.80187
C          2.85672       -0.79115       -3.00728
C          2.48857        0.61455       -2.50855
N          3.15384        1.65111       -3.28290
C          2.92334        0.60320       -1.06419
H          0.32695       -0.69785        0.64394
H          0.34740       -0.26631       -1.06291
H          0.26555        0.99626        0.16351
H          3.86513       -1.20113       -0.12253
H          1.51652       -1.98520       -1.76655
H          3.16396       -2.61200       -1.85708
H          2.29812       -1.08827       -3.89978
H          3.92764       -0.84949       -3.24522
H          1.40964        0.77136       -2.60004
H          4.16465        1.55149       -3.20892
H          2.92255        2.56155       -2.88804
H          3.79228        1.20945       -0.84143
