16

C          1.30116       -0.64201        0.44722
C          2.55152        0.19883        0.30670
N          3.28844        0.09560       -0.75471
N          2.76479        1.05949        1.36196
C          4.08967        1.63551        1.58892
C          2.99076        2.46742        1.00628
C          2.21198        3.36844        1.79863
C          1.46966        4.03952        2.45668
H          1.27234       -1.44919       -0.28754
H          0.42847        0.00397        0.30716
H          1.26107       -1.06913        1.45361
H          2.90361       -0.61336       -1.38858
H          4.87235        1.27143        0.93708
H          4.33060        1.72237        2.63849
H          3.05780        2.68122       -0.05669
H          0.75338        4.57580        3.03881
