16

C          1.26614       -0.04551       -0.06984
N          2.70048       -0.16919       -0.25301
N          3.35246       -1.25377        0.22119
C          4.53811       -0.84512        0.52795
C          4.75897        0.62838        0.47021
C          3.44852        1.08833       -0.15533
C          3.67201        1.65288       -1.50245
C          3.86246        2.06734       -2.61335
H          0.78351       -1.02674       -0.13041
H          0.82747        0.57728       -0.85655
H          1.01766        0.38974        0.90376
H          5.33580       -1.51532        0.87641
H          5.66393        0.85735       -0.09991
H          4.86987        0.98285        1.49986
H          2.96640        1.82379        0.49586
H          4.02944        2.40750       -3.60304
