19

C          1.00379       -0.14122       -0.02417
C          2.52487       -0.12228       -0.03714
N          3.04746       -1.08501       -1.00373
N          4.38673       -1.27301       -1.00010
C          4.81197       -2.26598       -1.71024
C          6.26225       -2.54575       -1.82710
C          6.71614       -3.56866       -2.55224
N          8.02783       -3.94662       -2.69004
H          0.61980        0.65779        0.61456
H          0.62118       -1.09162        0.36101
H          0.59520        0.01229       -1.03066
H          2.89073       -0.33673        0.97340
H          2.86727        0.88264       -0.31122
H          2.48810       -1.93923       -1.03755
H          4.13501       -2.94386       -2.26302
H          6.91972       -1.88405       -1.27653
H          6.03518       -4.22532       -3.09349
H          8.72433       -3.24388       -2.44952
H          8.25765       -4.50867       -3.50509
