19

C          1.59674        1.26211       -0.03603
C          2.44603       -0.00568        0.02752
N          1.66253       -1.11862        0.55229
C          2.97270       -0.37407       -1.32975
C          4.28074       -0.44614       -1.61315
N          4.84779       -0.76844       -2.81868
C          6.16688       -0.86873       -3.16143
N          7.21781       -0.68676       -2.44488
H          1.23594        1.53900        0.96108
H          0.72351        1.13691       -0.68683
H          2.18249        2.10447       -0.42125
H          3.27971        0.17446        0.71690
H          0.81481       -1.23632        0.00082
H          1.34886       -0.89130        1.49496
H          2.24027       -0.58532       -2.10382
H          5.00473       -0.24185       -0.82870
H          4.17956       -0.97915       -3.55322
H          6.29585       -1.14518       -4.22184
H          6.94819       -0.44203       -1.49039
