17

C          1.17216        0.10060        0.08074
C          2.66600        0.12713        0.02230
N          3.26854        0.45994       -1.07064
N          4.65117        0.42090       -0.91159
C          5.23865        0.69776       -2.03196
C          6.71700        0.74333       -2.10539
C          7.49202        1.68051       -1.21758
N          7.45492        0.25094       -0.93085
H          0.85059       -0.12502        1.09946
H          0.79374       -0.66900       -0.59764
H          0.77555        1.07458       -0.21799
H          3.21421       -0.15964        0.93735
H          4.67987        0.91588       -2.95891
H          7.14994        0.47981       -3.06308
H          6.95750        2.32446       -0.53003
H          8.43334        2.06851       -1.58566
H          6.77447        0.04083       -0.19131
