20

C          1.14834       -0.09731        0.08556
N          2.60375       -0.11117        0.01683
C          3.24288       -0.11617        1.32447
C          3.26648       -1.35118        0.43701
C          2.55083       -2.59588        0.88009
C          3.40547       -3.71059        0.28586
N          4.75007       -3.13378        0.23707
C          4.56331       -1.75074       -0.22654
H          0.79433        0.93007       -0.05085
H          0.72974       -0.46155        1.03119
H          0.72811       -0.69603       -0.72931
H          2.62677       -0.12494        2.21567
H          4.14684        0.47497        1.41249
H          1.52389       -2.67618        0.51283
H          2.54217       -2.66323        1.97409
H          3.06604       -3.95874       -0.72705
H          3.37391       -4.61930        0.89363
H          5.33655       -3.64349       -0.42102
H          4.46000       -1.72492       -1.31759
H          5.41250       -1.12868        0.07067
