22

C          0.99779        0.06108        0.18111
C          2.51806        0.06266        0.11041
N          2.93637        0.84701       -1.04889
C          4.39682        0.87998       -1.17769
C          4.87691        1.67461       -2.38071
C          4.06555        2.27969       -3.27103
C          6.37260        1.71209       -2.57054
N          7.03650        2.36659       -1.45165
H          0.65805       -0.50544        1.05344
H          0.56284       -0.40016       -0.71245
H          0.60301        1.07964        0.26581
H          2.87325       -0.97022        0.02735
H          2.92272        0.49153        1.03487
H          2.61595        1.80568       -0.92658
H          4.77589       -0.14511       -1.27274
H          4.82551        1.31636       -0.26720
H          2.98411        2.23581       -3.18619
H          4.45786        2.81955       -4.12626
H          6.64099        2.23963       -3.49371
H          6.75114        0.68887       -2.67161
H          6.72822        3.33756       -1.41651
H          8.03753        2.39867       -1.63791
