17

C          1.31291       -0.11847        0.09754
N          2.74200       -0.18957       -0.18134
N          3.52895        0.98148        0.06211
C          4.70680        0.98141       -0.81611
C          5.46221       -0.31427       -0.76469
C          4.88545       -1.46282       -0.38389
C          3.41862       -1.40808       -0.09241
N          2.80250       -2.51026        0.21992
H          0.95835        0.91804        0.07445
H          1.08023       -0.53462        1.08303
H          0.75573       -0.67388       -0.66416
H          3.84692        0.96697        1.03394
H          5.36829        1.79387       -0.49625
H          4.41100        1.19588       -1.84867
H          6.50526       -0.30253       -1.06108
H          5.40993       -2.40587       -0.34321
H          3.45232       -3.29952        0.22995
