18

C          0.75431        0.03988        0.17756
N          2.20327        0.15598        0.31070
C          2.92504       -0.84331       -0.46716
C          4.37926       -1.10479       -0.46633
N          4.58196       -0.05081       -1.45394
C          5.63050        0.88245       -1.34516
C          4.25001        1.21380       -0.78031
C          2.86047        0.59790       -0.93384
H          0.38582       -0.76143        0.82667
H          0.40876       -0.17007       -0.84228
H          0.28287        0.97302        0.50265
H          2.36353       -1.58453       -1.02414
H          4.63663       -2.08846       -0.86742
H          4.85946       -0.94525        0.50596
H          5.92814        1.39232       -2.25348
H          6.44144        0.67333       -0.65888
H          4.42567        1.46048        0.27444
H          2.24334        0.86278       -1.78590
