20

C          0.97152        0.09065        0.09049
C          2.47871       -0.01387        0.09277
N          3.10436       -0.40131        1.15644
N          3.14169        0.30895       -1.05891
C          4.58379        0.39706       -1.11202
C          5.02244        0.80004       -2.48967
C          4.73581        2.16923       -3.05741
C          6.13488        1.80838       -2.64772
H          0.55148       -0.19562        1.05873
H          0.56762       -0.57162       -0.68032
H          0.67864        1.12020       -0.13485
H          2.44628       -0.60516        1.91408
H          2.63410        0.77035       -1.80270
H          5.02238       -0.57970       -0.87792
H          4.94390        1.11372       -0.36500
H          4.99995       -0.04017       -3.17586
H          4.19851        2.88570       -2.44604
H          4.53106        2.24595       -4.11969
H          6.53726        2.28943       -1.76231
H          6.87232        1.63421       -3.42385
