19

C          0.96046       -0.05997        0.26009
N          2.41445       -0.01451        0.47127
C          2.96127        1.21801       -0.11636
C          4.47452        1.35070        0.13128
N          4.80461        2.02787        1.40036
C          5.20775        0.01532        0.05187
C          4.30807       -1.18326        0.02867
N          3.02370       -1.19561        0.21087
H          0.47985        0.89162        0.50733
H          0.51296       -0.82512        0.90362
H          0.72527       -0.30718       -0.77797
H          2.45033        2.09414        0.30103
H          2.77597        1.22653       -1.20184
H          4.87965        1.99938       -0.65333
H          4.39636        1.49317        2.16911
H          4.34542        2.93860        1.42853
H          5.91784       -0.12674        0.87643
H          5.80535       -0.02139       -0.86634
H          4.80038       -2.15328       -0.15753
