16

C          0.96324        0.18811       -0.01206
C          2.46781        0.09474        0.03484
N          2.99545       -0.51298        1.16728
C          3.89132       -1.54297        1.27344
N          4.39179       -2.28782        0.35469
C          3.17092        0.62592       -0.98269
C          4.69092        0.62592       -0.98269
C          5.99478        0.62592       -0.98269
H          0.50150       -0.27215        0.86876
H          0.57786       -0.34013       -0.89109
H          0.63740        1.23259       -0.05230
H          2.49637       -0.28941        2.02298
H          4.16027       -1.74498        2.32499
H          4.02589       -1.97019       -0.54883
H          2.69302        1.09509       -1.83639
H          7.05948        0.60790       -0.97375
