20

C          0.94204       -0.23977       -0.00993
C          2.46351       -0.09566        0.01176
N          2.86849        0.44062        1.29347
C          3.97567        1.19372        1.56086
C          4.92528        1.65795        0.48346
N          4.23122        1.57381        2.77075
C          3.11811       -1.43960       -0.15538
C          3.94949       -1.76294       -1.15642
H          0.46016        0.73034        0.15566
H          0.58649       -0.91947        0.77392
H          0.59828       -0.62838       -0.97473
H          2.74163        0.58781       -0.79842
H          2.38266        0.05105        2.09030
H          4.88813        1.02750       -0.40456
H          5.94980        1.64240        0.86796
H          4.67180        2.68488        0.20540
H          3.50625        1.23263        3.40178
H          2.89228       -2.19656        0.59283
H          4.21935       -1.05078       -1.93014
H          4.38871       -2.75437       -1.21521
