21

C          1.06874       -1.09871       -0.36636
C          2.49025       -0.60720       -0.14971
N          3.14447       -0.42117       -1.42956
C          4.44219       -0.06541       -1.58586
N          5.29069        0.16411       -0.65191
N          4.74247        0.00759       -2.90996
C          6.09132        0.33527       -3.34950
C          6.25577        0.01216       -4.82436
H          0.60295       -1.35779        0.58930
H          1.05116       -1.98459       -1.00965
H          0.45820       -0.32590       -0.84563
H          3.03798       -1.35111        0.43948
H          2.47531        0.33255        0.41298
H          2.55680        0.02813       -2.12462
H          4.84305        0.04274        0.25442
H          4.32128       -0.75753       -3.42505
H          6.83476       -0.22502       -2.77833
H          6.26651        1.40598       -3.18548
H          6.21602       -1.06963       -4.98771
H          7.22314        0.37374       -5.18503
H          5.46545        0.47274       -5.42710
