22

C          1.04234       -0.05218       -0.07266
C          2.57141        0.06858        0.01573
N          3.07696        0.29232       -1.35713
C          3.07463        1.14839        1.06860
C          2.61673        2.57316        0.69490
N          2.52987        0.85242        2.40723
C          4.60033        1.14352        1.10673
C          5.41032        0.87728        2.14378
H          0.75718       -0.85329       -0.76485
H          0.57883        0.87184       -0.43286
H          0.59998       -0.30318        0.89607
H          2.95751       -0.90908        0.33581
H          2.65300        1.13167       -1.74821
H          2.77507       -0.47877       -1.95173
H          1.52434        2.66007        0.68039
H          2.98590        2.87617       -0.29133
H          2.98826        3.31320        1.41508
H          1.52117        0.99204        2.40527
H          2.89312        1.54499        3.06048
H          5.07845        1.37839        0.15438
H          5.02974        0.60716        3.12221
H          6.48854        0.90328        2.02014
