20

C          0.99068       -0.30111        0.08033
C          2.50256       -0.08978        0.10125
N          2.86434        0.53764        1.35714
C          3.98159        1.27611        1.54254
N          4.38055        1.73453        2.67318
C          3.23629       -1.39892       -0.02606
C          3.17544       -2.20924       -1.30009
C          4.44707       -1.50434       -0.92347
H          0.46432        0.65208        0.20032
H          0.66717       -0.96678        0.88877
H          0.66759       -0.74764       -0.86518
H          2.76180        0.57765       -0.73051
H          2.38071        0.20107        2.17990
H          4.55831        1.48040        0.62456
H          3.72058        1.46667        3.40565
H          3.24811       -1.96014        0.90282
H          2.61213       -1.82516       -2.14266
H          3.15061       -3.29005       -1.21033
H          4.74001       -0.64604       -1.51800
H          5.28179       -2.10625       -0.58215
