21

C          0.97204        0.27400        0.50319
C          2.45010        0.02645        0.22225
N          2.54616       -1.03430       -0.77790
N          3.77227       -1.36340       -1.24294
C          3.69953       -2.23034       -2.20831
C          4.92109       -2.80632       -2.88042
N          4.75336       -2.64330       -4.33105
C          5.82011       -3.30965       -5.06789
H          0.84705        1.01327        1.29811
H          0.47137       -0.64906        0.81383
H          0.46431        0.64893       -0.39246
H          2.95876       -0.27040        1.14555
H          2.91266        0.94778       -0.14609
H          1.86856       -0.86582       -1.52245
H          2.72778       -2.62538       -2.56402
H          5.83207       -2.32459       -2.51436
H          4.93848       -3.87222       -2.62521
H          4.75841       -1.65318       -4.55747
H          6.18257       -4.21144       -4.56282
H          6.66498       -2.63476       -5.22624
H          5.44114       -3.61604       -6.04781
