17

C          0.92991       -0.13767        0.04044
C          2.45548       -0.06518       -0.03985
N          3.04810       -0.57606        1.21388
C          2.96215       -0.94159       -1.17369
C          3.39677       -1.69337       -2.14631
C          2.95874        1.40358       -0.21554
N          2.26098        2.33179       -0.93023
N          4.08075        1.78482        0.32573
H          0.58484       -1.16317        0.22188
H          0.46213        0.19395       -0.89466
H          0.54036        0.49687        0.84387
H          2.69782       -1.51853        1.37618
H          2.69627       -0.00620        1.98404
H          3.76401       -2.30801       -2.93552
H          1.77834        1.99589       -1.75403
H          2.83284        3.15144       -1.10983
H          4.45633        0.95302        0.81805
