19

C          1.30726       -0.22233       -0.37491
N          2.74917       -0.05437       -0.23067
C          3.52504       -1.26205       -0.54105
C          4.78561       -1.09395        0.32447
C          6.03695       -0.69252       -0.45775
N          5.06741       -2.25682        1.17945
C          4.32725        0.05775        1.18275
N          3.19586        0.59537        0.87403
H          0.99208       -1.26783       -0.31009
H          0.97659        0.18001       -1.33710
H          0.76908        0.31770        0.41041
H          3.75164       -1.32249       -1.61507
H          2.98760       -2.17546       -0.25891
H          6.75063       -0.15366        0.17746
H          6.55077       -1.57160       -0.86423
H          5.79620       -0.03926       -1.30347
H          5.91092       -2.09585        1.72738
H          5.25677       -3.07211        0.59681
H          4.94149        0.40581        2.02385
