20

C          2.83205       -0.86055        1.18864
N          2.47696       -0.02294        0.03996
C          1.01487        0.00581       -0.10489
C          2.97885        1.36652        0.20146
C          4.53171        1.52617        0.23904
N          5.17747        0.90319       -0.92254
C          4.90486        2.94969        0.30437
C          5.22897        4.10457        0.38875
H          2.42282       -1.87053        1.06727
H          2.45617       -0.45006        2.13247
H          3.91611       -0.98506        1.26718
H          0.60239       -1.00899       -0.14605
H          0.73329        0.49569       -1.04343
H          0.52780        0.53609        0.72251
H          2.55255        1.82061        1.10696
H          2.60417        1.96014       -0.64593
H          4.92083        1.04069        1.13925
H          4.71495        1.25394       -1.76097
H          4.93035       -0.08720       -0.90079
H          5.53450        5.12217        0.47103
