22

C          1.07774       -0.13732       -0.00616
N          2.53032       -0.02896        0.06476
C          3.03998        1.19511       -0.56572
C          2.56038        2.46345        0.14920
C          4.54788        1.13103       -0.51267
C          5.33858        0.08639       -1.26735
C          5.34617        1.51126       -1.73559
N          6.56047        2.30797       -1.59433
H          0.77312       -1.13268        0.33430
H          0.70926       -0.01174       -1.03057
H          0.58468        0.58738        0.64845
H          2.93394       -0.82928       -0.42234
H          2.70986        1.23109       -1.61211
H          2.79741        2.43015        1.21936
H          1.48078        2.60801        0.04386
H          3.05383        3.34926       -0.26547
H          4.93005        1.39570        0.46834
H          4.81107       -0.63959       -1.87342
H          6.22871       -0.30873       -0.79016
H          4.80298        1.69982       -2.66028
H          7.03570        2.11120       -0.71551
H          6.33877        3.30257       -1.57754
