22

C          0.99118       -1.29975       -0.46071
N          2.44687       -1.33117       -0.46274
C          2.97348       -1.11053        0.88162
C          4.46876       -1.16559        0.84456
C          5.22055       -1.98378        1.59954
C          6.71626       -2.02363        1.54629
N          7.25842       -1.21458        2.63269
C          8.71361       -1.21875        2.61041
H          0.62252       -1.47079       -1.47681
H          0.61074       -0.32980       -0.12355
H          0.57830       -2.08829        0.17647
H          2.79245       -0.59486       -1.07659
H          2.58061       -1.86844        1.57025
H          2.66814       -0.12609        1.25602
H          4.96478       -0.45969        0.18174
H          4.73954       -2.68132        2.28082
H          7.06939       -1.65068        0.57704
H          7.04367       -3.06683        1.63313
H          6.93194       -1.58513        3.52302
H          9.09953       -0.83361        1.66062
H          9.11381       -2.22371        2.77882
H          9.09063       -0.56750        3.40483
