22

C          0.95050       -0.20397       -0.14405
N          2.40111       -0.16910        0.00031
C          2.84759        0.83148        0.98613
C          2.34222        0.53182        2.43049
N          2.79846        1.50443        3.43229
C          4.36746        0.80759        0.93802
C          5.14615        1.20901       -0.29545
C          5.13439        2.10648        0.90795
H          0.68834       -0.80055       -1.02366
H          0.52602        0.79561       -0.28167
H          0.47684       -0.68478        0.71716
H          2.80297        0.08390       -0.90224
H          2.48947        1.82330        0.67937
H          2.67349       -0.46721        2.73981
H          1.24775        0.53539        2.45448
H          3.81821        1.50793        3.44711
H          2.50486        1.18558        4.35474
H          4.77766       -0.01627        1.51540
H          4.61029        1.53608       -1.17768
H          6.05921        0.66066       -0.50716
H          4.58402        3.03942        0.82916
H          6.03817        2.17979        1.50251
