18

C          3.27822       -1.30863        0.57467
N          2.57852       -0.10974        0.08558
C          1.19180       -0.14399        0.09758
N          0.31803        0.73116       -0.25908
C          3.33311        0.98013       -0.35702
C          4.66753        1.11604       -0.41122
C          5.33146        2.30378       -0.89399
C          6.66524        2.41465       -0.93792
H          2.59141       -2.09895        0.89589
H          3.90691       -1.05695        1.43619
H          3.90845       -1.72993       -0.21656
H          0.79440       -1.09866        0.48432
H          0.77230        1.57610       -0.60126
H          2.72031        1.81020       -0.69579
H          5.31202        0.30656       -0.08122
H          4.71902        3.13656       -1.23326
H          7.32293        1.61448       -0.61189
H          7.13361        3.32167       -1.30641
