21

C          1.07934        0.01245        0.11124
N          2.53452       -0.00170        0.12973
C          3.05792       -0.04589        1.49744
C          4.58149       -0.07839        1.45701
C          5.15742       -0.06943        2.84511
N          5.88829       -1.05732        3.25586
N          6.43693       -0.86892        4.47530
C          7.23422       -1.97370        4.99571
H          0.72925        0.02589       -0.92575
H          0.68046        0.90005        0.61210
H          0.66787       -0.88441        0.58499
H          2.88771        0.82395       -0.35356
H          2.68846       -0.93786        2.01728
H          2.71838        0.83043        2.06337
H          4.96780        0.81102        0.94470
H          4.93798       -0.96325        0.91815
H          4.95725        0.82343        3.46596
H          5.76771       -0.56268        5.18597
H          7.67167       -2.57113        4.18822
H          6.62255       -2.63286        5.61942
H          8.05422       -1.58086        5.60252
