16

C          1.11443        0.09340        0.01683
N          2.54934        0.19621        0.02663
C          3.30271        1.34121        0.13576
N          2.74026        2.50841        0.24701
C          4.82165        1.26244        0.12825
C          5.54510        2.38742        0.23548
C          5.48821        0.00628        0.00853
C          6.06133       -1.04451       -0.09162
H          0.81591       -0.95452       -0.08305
H          0.69001        0.64653       -0.82654
H          0.69001        0.47726        0.94951
H          3.05151       -0.68137       -0.05701
H          1.72801        2.40346        0.23701
H          5.06748        3.35807        0.32799
H          6.62920        2.37006        0.23382
H          6.58333       -1.96891       -0.17973
