19

C          0.92653        0.04731        0.01352
N          2.39271        0.01575        0.01481
C          3.06653       -0.76771       -0.90698
C          2.80912       -0.94881       -2.20603
C          3.07798        0.84839        0.90599
N          2.64155        1.21504        2.07260
C          4.45603        1.42672        0.49432
N          5.47522        0.93197        1.42677
H          0.49191       -0.59077       -0.76462
H          0.56553        1.06955       -0.15175
H          0.53000       -0.31715        0.97014
H          3.93877       -1.25415       -0.46297
H          2.00564       -0.42205       -2.70669
H          3.44996       -1.58162       -2.81064
H          1.75438        0.75270        2.27083
H          4.38756        2.51790        0.56151
H          4.72414        1.16925       -0.53273
H          5.07816        1.04956        2.36463
H          6.27670        1.55772        1.38634
