24

C          0.90526        0.02681        0.17436
N          2.36146       -0.00674        0.11454
C          2.87505        1.06266       -0.75690
C          4.43170        1.07000       -0.81913
N          4.93711       -0.25743       -1.22274
C          4.98354        2.16591       -1.77207
C          4.54136        3.57181       -1.34352
C          6.51782        2.14190       -1.84276
H          0.55276       -0.72340        0.88851
H          0.46265       -0.20026       -0.80058
H          0.54004        1.00125        0.51477
H          2.65468       -0.90925       -0.25282
H          2.52286        2.02438       -0.37034
H          2.47267        0.93565       -1.77002
H          4.81414        1.26609        0.19132
H          4.46499       -0.55732       -2.07334
H          4.68725       -0.92543       -0.49454
H          4.59886        1.98703       -2.78464
H          4.82089        3.77327       -0.30487
H          3.46016        3.70036       -1.44001
H          5.00963        4.33734       -1.97287
H          6.96162        2.27307       -0.84981
H          6.89022        2.94529       -2.48730
H          6.88645        1.19927       -2.26043
