16

C          1.09823       -0.15220        0.03370
N          2.56870       -0.09807       -0.01182
C          3.13560        0.87280       -0.82577
N          4.36488        1.16467       -1.07006
C          3.30415       -1.00962        0.75240
C          2.86369       -1.98087        1.56658
C          3.74978       -2.83225        2.28069
C          4.46335       -3.57090        2.90024
H          0.62561        0.60496       -0.60090
H          0.74348        0.01611        1.05683
H          0.74333       -1.13017       -0.31066
H          2.37748        1.48781       -1.34178
H          4.99271        0.55013       -0.55443
H          4.37869       -0.88420        0.64738
H          1.80404       -2.15414        1.71161
H          5.08095       -4.23657        3.45839
