19

C          0.99244       -0.15348       -0.51913
N          2.42456       -0.21158       -0.26070
C          2.77848       -0.66340        1.11984
C          2.28429        0.25307        2.24911
C          2.70256       -0.22926        3.57584
C          2.99357       -0.56478        4.69191
C          2.90621       -2.16486        1.31286
C          4.14641       -1.32149        1.22220
H          0.82178        0.09534       -1.57101
H          0.50340        0.61853        0.08276
H          0.51140       -1.11681       -0.32312
H          2.85015        0.69297       -0.46123
H          1.19022        0.30790        2.22606
H          2.67301        1.26430        2.08312
H          3.22825       -0.83556        5.69402
H          2.68179       -2.81252        0.47192
H          2.66034       -2.60731        2.27006
H          4.74539       -1.40652        0.32161
H          4.74159       -1.19171        2.11756
