18

C          1.02761        0.08812        0.11409
N          2.48260        0.14282        0.09463
C          3.20788       -0.98639        0.65912
C          3.13404        1.13213       -0.57508
C          4.49901        1.27004       -0.69220
N          4.75719        2.39023       -1.44057
C          3.57523        2.97475       -1.80764
C          2.55190        2.21664       -1.28062
H          0.65388       -0.77273        0.67892
H          0.62620        0.00963       -0.90226
H          0.61654        0.98547        0.59003
H          2.54123       -1.69598        1.16179
H          3.93226       -0.64556        1.40737
H          3.73918       -1.53737       -0.12456
H          5.31556        0.67595       -0.30900
H          5.67860        2.72955       -1.68161
H          3.56148        3.87410       -2.40744
H          1.49911        2.42965       -1.40170
