24

C          1.11858        0.29994        0.75198
C          2.63655        0.14840        0.53656
C          3.03151        1.17582       -0.54164
C          3.68387        0.39434        1.67030
C          4.20141       -1.03958        1.55042
C          3.01037       -1.41018        0.63516
C          2.06958       -2.32766        1.45992
C          3.40283       -2.10141       -0.66688
H          0.74014        1.28061        0.45168
H          0.83242        0.14168        1.80861
H          0.58117       -0.42992        0.13831
H          4.04070        1.00693       -0.93791
H          3.01322        2.19255       -0.11770
H          2.32850        1.18711       -1.38638
H          3.24748        0.64269        2.64425
H          4.48157        1.11895        1.46416
H          4.26652       -1.57424        2.51089
H          5.18156       -1.13182        1.06890
H          1.76128       -1.86203        2.40344
H          2.57112       -3.26264        1.71515
H          1.17438       -2.58299        0.88979
H          4.11806       -1.51244       -1.24146
H          2.51894       -2.26930       -1.29410
H          3.85822       -3.07965       -0.46904
