20

C          1.65235       -0.01690        0.25964
N          3.07366        0.12285       -0.03388
C          3.43626        0.52583       -1.20914
C          2.44499        0.90630       -2.30724
N          4.74530        0.61980       -1.67000
C          5.73298       -0.31176       -1.09590
C          5.85285        1.16490       -0.88410
C          5.78472        1.72125        0.48605
H          1.52756       -0.39969        1.27833
H          1.17580       -0.74193       -0.40898
H          1.12627        0.94223        0.20731
H          1.39723        0.83938       -2.01676
H          2.60270        0.24505       -3.16557
H          2.64443        1.93515       -2.62320
H          6.34455       -0.78461       -1.84830
H          5.37344       -0.93533       -0.28922
H          6.54056        1.72217       -1.51027
H          5.30893        1.04850        1.20474
H          5.26282        2.68235        0.49503
H          6.80679        1.90070        0.84476
