20

C          0.90821       -0.05020       -0.11453
N          2.36187       -0.05824       -0.16956
C          2.92735       -1.08565        0.71417
C          4.47226       -1.03586        0.76775
C          5.03493        0.26864        1.38833
N          4.68094        1.50102        0.67576
C          4.97892       -2.20280        1.59958
C          5.41354       -3.20381        2.31312
H          0.52488        0.78780       -0.70456
H          0.53673        0.06369        0.90901
H          0.49870       -0.96989       -0.54395
H          2.72871        0.85178        0.14162
H          2.61304       -2.07380        0.35423
H          2.52962       -0.97046        1.73143
H          4.87150       -1.15023       -0.24889
H          6.12988        0.20191        1.42465
H          4.69410        0.36442        2.42589
H          4.95459        1.40936       -0.30411
H          5.23288        2.27214        1.05260
H          5.76810       -4.02409        2.89413
