22

C          1.03388        0.68083       -1.05155
N          2.49022        0.73612       -1.04749
C          3.06061       -0.61051       -1.06817
C          4.57313       -0.57053       -1.09811
C          5.26351        0.00749        0.10635
C          5.25912       -1.07953       -2.14463
C          6.74395       -1.12807       -2.31253
N          7.16668       -2.51495       -2.44387
H          0.63034        1.69784       -1.02671
H          0.64923        0.14607       -0.17648
H          0.65756        0.19971       -1.95975
H          2.79560        1.21593       -0.20354
H          2.68178       -1.14966       -1.94606
H          2.74257       -1.17723       -0.18416
H          4.55011        0.35103        0.86215
H          5.88007        0.86752       -0.17651
H          5.89566       -0.74695        0.58615
H          4.70191       -1.49174       -2.98472
H          7.27916       -0.66332       -1.47957
H          7.01675       -0.58011       -3.22029
H          6.97548       -2.99655       -1.56646
H          8.17742       -2.54072       -2.56434
