20

C          2.10077        1.03531       -1.04103
N          2.31216       -0.01909       -0.06456
C          2.99966       -1.22080       -0.52779
C          2.01628       -2.28526       -0.92072
C          1.08532       -2.12976       -2.10016
C          2.23915       -3.08785       -2.18220
C          1.88772        0.09129        1.23189
N          1.27813        1.07402        1.79362
H          2.56091        0.80686       -2.00800
H          2.53973        1.97386       -0.68659
H          1.03010        1.18981       -1.21041
H          3.64624       -1.61237        0.26751
H          3.67091       -0.98137       -1.36102
H          1.62885       -2.80964       -0.05381
H          1.13167       -1.22561       -2.69237
H          0.08638       -2.54368       -2.00848
H          3.06086       -2.82416       -2.83879
H          2.01755       -4.14872       -2.16069
H          2.12645       -0.79340        1.84711
H          1.12314        1.82037        1.11615
