19

C          2.24315       -0.03577        1.17722
N          2.35018        0.31593       -0.23328
C          3.18215       -0.62180       -0.93684
C          2.63598       -2.08598       -1.06527
C          3.67470       -1.99548       -2.27585
C          2.94250       -0.59449       -2.49384
C          4.98835       -1.63706       -1.63827
C          4.64369       -0.69738       -0.74191
H          1.70168        0.75412        1.70745
H          3.22200       -0.14198        1.65611
H          1.67662       -0.96260        1.31302
H          2.68651        1.27474       -0.31333
H          1.58188       -2.22279       -1.33287
H          2.89064       -2.78353       -0.26032
H          3.66384       -2.74641       -3.06208
H          1.90969       -0.63416       -2.85978
H          3.49205        0.15808       -3.06960
H          5.96413       -2.03573       -1.86418
H          5.27328       -0.15018       -0.06228
