20

C          1.10476        0.02950       -0.00163
C          2.60861        0.03814        0.05955
C          3.24990       -0.55518        1.21720
C          3.02189       -1.79998        1.64887
C          3.32661        0.60404       -0.92992
C          4.78860        0.66896       -1.04928
C          5.39941        1.81789       -1.80823
C          5.54118        1.74688       -0.31586
H          0.64953       -0.38821        0.90245
H          0.75774       -0.56167       -0.85563
H          0.72383        1.05184       -0.10763
H          3.98613        0.06014        1.73199
H          2.33364       -2.46772        1.14058
H          3.55166       -2.18861        2.51313
H          2.77348        1.02824       -1.76740
H          5.27397       -0.29776       -1.15040
H          4.75195        2.58560       -2.21635
H          6.27424        1.61155       -2.41406
H          4.98387        2.45829        0.28271
H          6.51351        1.49352        0.09140
