22

C          3.18782        1.11670       -0.63463
N          2.54781       -0.07128       -0.06287
C          1.22862       -0.35931       -0.35642
N          0.46214        0.09587       -1.28200
C          3.23793       -0.70069        1.11155
C          2.80120        0.00891        2.40408
C          2.90827       -2.20509        1.21735
C          4.77393       -0.60608        0.98108
H          2.58622        1.61400       -1.39869
H          4.13161        0.84766       -1.11919
H          3.38394        1.86229        0.14241
H          0.78211       -1.10576        0.31461
H          0.95365        0.75598       -1.87891
H          1.72222       -0.08850        2.56959
H          3.03086        1.07922        2.37119
H          3.31150       -0.41278        3.27722
H          1.87263       -2.38734        1.52263
H          3.53581       -2.69741        1.97214
H          3.07117       -2.71455        0.26256
H          5.12778        0.42989        1.00634
H          5.11827       -1.05924        0.04427
H          5.27476       -1.12707        1.80575
