19

C          0.97258       -0.07464        0.03755
N          2.42222        0.06383       -0.02796
C          2.84322        1.26927       -0.76485
C          2.40851        2.57104       -0.09688
C          4.36070        1.26087       -0.81627
N          4.98829        1.23808       -1.94979
N          6.36448        1.25858       -1.74873
C          6.98921        1.27847       -2.87778
H          0.72266       -1.03878        0.49175
H          0.51669       -0.04538       -0.95715
H          0.52146        0.69842        0.66613
H          2.80074       -0.75119       -0.51542
H          2.46379        1.23365       -1.79337
H          2.71556        2.60423        0.95468
H          1.32315        2.70430       -0.14260
H          2.86670        3.43274       -0.59572
H          4.89844        1.28534        0.14961
H          8.08950        1.30000       -2.89515
H          6.47215        1.27671       -3.85232
