23

C          1.06163        0.02797        0.17613
N          2.51245        0.17956        0.23234
C          2.95801        1.20132       -0.71926
C          2.48381        2.60946       -0.28920
C          3.92037        3.11712       -0.58237
C          4.11988        3.71907       -1.96709
C          4.39629        1.65053       -0.31261
C          5.56184        1.10588       -1.11366
H          0.76307       -0.84057        0.77373
H          0.70478       -0.12438       -0.84575
H          0.55656        0.89978        0.60356
H          2.93983       -0.72947        0.05260
H          2.82105        0.96297       -1.77927
H          2.20602        2.71980        0.76710
H          1.68684        3.04033       -0.90317
H          4.28267        3.82457        0.17475
H          3.77184        3.05104       -2.76118
H          5.17854        3.93360       -2.14246
H          3.56961        4.66127       -2.05543
H          4.60997        1.51117        0.76084
H          5.39572        1.19019       -2.19209
H          5.72526        0.04670       -0.88290
H          6.48127        1.64551       -0.86680
