19

C          1.06298       -0.18619        0.15377
N          2.51864       -0.12006        0.05688
C          3.01910       -0.74034       -1.17406
C          2.51243       -0.00018       -2.40119
C          2.07781        0.63473       -3.45382
C          4.53389       -0.76626       -1.18183
C          5.27470        0.54088       -1.09243
C          5.22534       -1.91954       -1.26205
H          0.74777        0.20928        1.12456
H          0.69697       -1.21555        0.07856
H          0.57276        0.42480       -0.61008
H          2.91862       -0.63273        0.84081
H          2.64034       -1.77012       -1.23190
H          1.72590        1.15986       -4.31102
H          4.59904        1.39942       -1.03751
H          5.90958        0.68020       -1.97471
H          5.90594        0.56243       -0.19763
H          4.72566       -2.88184       -1.32696
H          6.31103       -1.92794       -1.26407
