16

C          1.06865        0.01174       -0.10029
C          2.40458        0.01602       -0.08827
C          3.16458        0.63318        1.07445
C          3.81650        1.16257        2.07183
C          4.57650        1.77973        3.23455
C          4.17312        1.48260        4.47775
C          5.70184        2.65973        2.97860
C          6.16887        3.00929        1.77202
H          0.52399       -0.42840       -0.92864
H          0.49166        0.44475        0.71086
H          2.99475       -0.41272       -0.89126
H          3.32912        0.82156        4.65015
H          4.66832        1.88609        5.35422
H          6.20424        3.06679        3.85434
H          5.72765        2.65051        0.84777
H          7.02004        3.67659        1.68387
