23

C          1.09072       -0.05525        0.07154
N          2.54275       -0.03407       -0.04488
C          3.06630       -1.11062       -0.89772
C          2.60905       -0.99913       -2.35741
C          4.58982       -1.11760       -0.82484
C          5.31132        0.13975       -1.24298
C          5.25526       -2.22006       -0.41869
C          6.73933       -2.38946       -0.32443
H          0.77589        0.69494        0.80355
H          0.72387       -1.02859        0.41349
H          0.60465        0.20558       -0.87406
H          2.94416       -0.15390        0.88560
H          2.69255       -2.06732       -0.50768
H          2.84132       -0.01880       -2.78782
H          1.52964       -1.15732       -2.45045
H          3.09786       -1.76025       -2.97647
H          4.62177        0.93936       -1.52931
H          5.95291       -0.05714       -2.10837
H          5.92415        0.52438       -0.42090
H          4.68605       -3.10275       -0.13108
H          7.29696       -1.49255       -0.60570
H          7.05771       -3.20362       -0.98304
H          7.01758       -2.65133        0.70095
