19

C          1.32049       -0.53924       -0.65591
N          2.38864        0.11506        0.10716
C          1.96326        1.44796        0.53368
C          2.90017       -0.68933        1.24017
C          3.54147       -2.02839        0.85605
N          2.70268       -3.02430        1.52322
N          1.68588       -2.47696        2.23673
C          1.81539       -1.19326        2.14734
H          1.06285        0.06306       -1.53373
H          0.40734       -0.67639       -0.06663
H          1.63475       -1.51402       -1.04030
H          1.68617        2.05826       -0.33374
H          2.78356        1.97399        1.03400
H          1.10534        1.41645        1.21397
H          3.60758       -0.09959        1.83581
H          4.56411       -2.08771        1.24575
H          3.59748       -2.19736       -0.22357
H          2.36348       -3.74057        0.87705
H          1.16380       -0.49169        2.68742
