17

C          2.86224       -0.67394        1.11663
N          2.46381        0.06059       -0.08228
C          2.95808        1.44560       -0.05865
C          4.45516        1.47365       -0.12960
N          5.21879        2.01129        0.77430
N          6.57605        1.82222        0.37326
C          6.57619        1.18234       -0.75002
C          5.21678        0.87279       -1.25762
H          2.44010       -1.68314        1.07645
H          2.49652       -0.19009        2.02737
H          3.94993       -0.78714        1.18130
H          1.44355        0.08820       -0.11074
H          2.60823        1.97862        0.83222
H          2.57472        1.97398       -0.93823
H          7.47877        0.88388       -1.29837
H          5.06488       -0.20264       -1.33935
H          5.02230        1.38301       -2.20172
