17

C          0.92911       -0.10850        0.01496
N          2.38672       -0.07752        0.02502
C          3.03353       -0.15993       -1.28130
C          3.27922       -1.55349       -1.68864
C          3.51476       -2.67517       -2.04765
C          3.10367       -0.04445        1.18594
N          2.46297        0.46534        2.26099
N          4.32098       -0.41968        1.36296
H          0.52444       -0.25779       -0.99201
H          0.52186        0.83740        0.38776
H          0.55641       -0.92547        0.64232
H          3.98035        0.39270       -1.26372
H          2.42121        0.34003       -2.03979
H          3.74156       -3.66437       -2.37412
H          1.93693        1.30258        2.05939
H          3.14104        0.63173        2.99739
H          4.67083       -0.84227        0.50183
