21

C          2.59660        1.17410        0.87962
N          2.52384       -0.10731        0.19757
C          2.91122       -1.26041        1.03150
C          1.90293       -1.51629        2.16473
C          2.24170       -2.77652        2.96529
C          2.56972       -3.95166        2.09872
C          2.91913       -3.82775        0.81156
C          3.03473       -2.50378        0.11283
H          2.23719        1.95750        0.20480
H          3.62513        1.41915        1.16150
H          1.95965        1.21120        1.76708
H          3.12408       -0.07222       -0.62958
H          3.89873       -1.07098        1.47218
H          0.89289       -1.61636        1.74586
H          1.87401       -0.67243        2.86395
H          1.38857       -3.02687        3.60600
H          3.09431       -2.58394        3.62750
H          2.50151       -4.93973        2.54601
H          3.11778       -4.71831        0.22098
H          2.26204       -2.48050       -0.66756
H          4.00154       -2.46312       -0.40453
