17

C          2.17083        0.90931        0.76477
N          2.62873       -0.13458       -0.13161
C          3.17956        0.20182       -1.33774
N          3.28916        1.41975       -1.74685
C          3.92156        1.64919       -3.05839
C          4.24081        0.41370       -3.85036
C          4.05386       -0.79388       -3.31193
N          3.58643       -0.90205       -2.03429
H          1.79971        0.46276        1.69175
H          1.35072        1.47461        0.31037
H          2.98473        1.59642        1.01765
H          3.15033       -0.85863        0.34656
H          4.84493        2.21788       -2.90091
H          3.24826        2.27866       -3.64998
H          4.60877        0.52801       -4.86292
H          4.24263       -1.72188       -3.83966
H          3.19227       -1.79273       -1.76702
