20

C          0.97450        0.00941       -0.00850
N          2.42308        0.07604       -0.01266
C          3.05924        0.93811        0.72073
C          2.32834        1.95377        1.59681
N          4.46915        0.97697        0.70827
C          5.14066        0.40967       -0.47382
C          5.24865        1.42550        1.77447
C          6.58038        1.47278        1.89755
H          0.65736       -0.82589       -0.64112
H          0.52897        0.91719       -0.42739
H          0.57848       -0.18060        0.99433
H          1.24792        1.95999        1.44948
H          2.69674        2.95641        1.35300
H          2.51627        1.74548        2.65226
H          4.45008        0.13668       -1.27850
H          5.70853       -0.48633       -0.20105
H          5.82783        1.14893       -0.90216
H          4.66569        1.74650        2.63325
H          7.25142        1.15298        1.10943
H          7.03263        1.82864        2.81789
