21

C          1.00591        0.07662        0.03868
N          2.46015        0.05307        0.07599
C          2.94007       -0.23084        1.42251
C          4.46007       -0.23084        1.42251
C          5.76393       -0.23084        1.42251
C          7.28393       -0.23084        1.42251
C          7.80141        0.21617        0.05909
C          7.80181        0.67919        2.53160
H          0.66958        0.29561       -0.97926
H          0.59740        0.84618        0.70168
H          0.58765       -0.89568        0.32014
H          2.82701        0.95734       -0.21700
H          2.59470       -1.21469        1.75960
H          2.59099        0.52554        2.13482
H          7.62530       -1.25512        1.61430
H          7.46807        1.23187       -0.18311
H          7.43868       -0.44791       -0.73340
H          8.89607        0.20300        0.03462
H          7.46889        1.71382        2.38973
H          8.89643        0.67541        2.55922
H          7.43893        0.34719        3.51076
