19

C          1.11913       -0.08326        0.19890
N          2.59228       -0.08225        0.12654
C          3.21259       -0.02286       -1.14457
C          4.55299       -0.70437       -1.34972
C          2.68090        0.56706       -2.23392
C          3.26343       -0.11331        1.34620
N          4.51686        0.39488        1.37296
N          2.81585       -0.50842        2.49287
H          0.63221       -0.10406       -0.78115
H          0.77085        0.81090        0.72791
H          0.75592       -0.97297        0.72308
H          4.89917       -1.26012       -0.47375
H          5.31787        0.03204       -1.61483
H          4.48121       -1.43705       -2.16226
H          1.73617        1.09339       -2.21507
H          3.20181        0.55484       -3.18756
H          4.63353        1.21548        0.79721
H          4.81126        0.53718        2.33114
H          1.87681       -0.88843        2.39827
