23

C         -0.02817        0.22969        0.35489
N          0.77530       -0.05028        1.54418
C          2.18346        0.11740        1.20493
C          3.16215       -0.11029        2.37015
C          4.56649        0.04681        1.85216
C          4.99262        1.41611        1.37383
C          5.65061        0.81374        2.57477
C          7.08249        0.41194        2.45930
H         -1.09370        0.17107        0.59204
H          0.18498       -0.48957       -0.44454
H          0.16877        1.23946       -0.02332
H          0.60590       -1.00973        1.84945
H          2.45300       -0.56081        0.38704
H          2.33221        1.14104        0.83932
H          3.03891       -1.12125        2.78299
H          2.95942        0.59588        3.18832
H          4.86599       -0.81042        1.25750
H          4.33316        2.26419        1.53882
H          5.52815        1.46452        0.43126
H          5.42618        1.25029        3.54257
H          7.28075       -0.13262        1.52793
H          7.37149       -0.22422        3.29799
H          7.72410        1.30140        2.47042
