16

C          1.07633       -0.00183       -0.08252
N          2.53133       -0.04166       -0.10342
C          3.00796       -1.39041       -0.37781
C          4.52796       -1.39041       -0.37781
C          5.83182       -1.39041       -0.37781
C          7.35182       -1.39041       -0.37781
C          7.93361       -0.66176        0.75741
N          8.41489       -0.09453        1.64956
H          0.74154        1.01768        0.13244
H          0.66561       -0.66083        0.68950
H          0.65948       -0.28662       -1.05406
H          2.89240        0.25610        0.80220
H          2.66275       -1.73364       -1.35959
H          2.65835       -2.09762        0.38305
H          7.69766       -0.94770       -1.31866
H          7.69686       -2.43045       -0.36499
