23

C          0.93587       -0.22706        0.08743
N          2.37106       -0.02237       -0.04814
C          2.79902        1.12246       -0.89120
C          2.29662        0.95917       -2.33859
C          2.27801        2.44867       -0.30397
C          4.36562        1.10724       -0.86859
C          5.05782        2.18403       -1.66875
C          5.87089        1.94868       -2.70706
H          0.76334       -1.08367        0.74758
H          0.45628       -0.45821       -0.86776
H          0.43492        0.62720        0.55008
H          2.78706       -0.87975       -0.41381
H          1.20359        0.99884       -2.39885
H          2.62373        0.00469       -2.76686
H          2.67064        1.75914       -2.98640
H          1.18454        2.50543       -0.32349
H          2.63687        3.31189       -0.87413
H          2.60448        2.57722        0.73446
H          4.71902        0.12476       -1.21174
H          4.71252        1.20325        0.16983
H          4.89862        3.21341       -1.35565
H          6.08174        0.94159       -3.05243
H          6.34846        2.76917       -3.23413
