21

C          0.94292       -0.03133        0.14739
N          2.40686       -0.00184        0.09590
C          2.89959        1.21040        0.75246
C          2.96076       -1.23454        0.68902
C          4.48331       -1.33242        0.59410
C          4.95438       -2.62494        1.20052
N          5.58991       -3.49964        0.48795
N          5.99107       -4.58094        1.19159
H          0.52232        0.85351       -0.34286
H          0.56801       -0.06579        1.17697
H          0.55336       -0.90157       -0.39299
H          2.42058        2.10131        0.32960
H          3.97215        1.34407        0.58332
H          2.71201        1.20020        1.83200
H          2.53663       -2.09935        0.16003
H          2.64724       -1.33108        1.73664
H          4.96915       -0.53327        1.16448
H          4.81683       -1.26866       -0.44916
H          4.75094       -2.77257        2.27802
H          6.44944       -5.24382        0.56315
H          5.20424       -5.08596        1.60733
