21

C          1.12555       -0.03907        0.13342
N          2.58709       -0.08069        0.08050
C          3.12076       -0.20910       -1.27130
C          3.34493        0.24960        1.19163
N          2.81595        0.44134        2.35697
N          4.69955        0.48775        1.04597
C          5.61112       -0.48586        0.45374
C          5.37172        1.27479        2.09097
H          0.65614       -0.30228       -0.82023
H          0.78573        0.96970        0.39450
H          0.74299       -0.75017        0.87339
H          2.34335       -0.12104       -2.03772
H          3.55882       -1.20060       -1.41141
H          3.86400        0.56460       -1.49096
H          1.81449        0.28129        2.32726
H          5.11194       -1.29632       -0.07393
H          6.23026       -0.96319        1.22178
H          6.27821        0.02758       -0.24726
H          4.70317        1.98983        2.58252
H          6.18595        1.85727        1.64690
H          5.79686        0.61976        2.86230
