19

C          2.71789       -0.44649        1.30228
N          2.46704       -0.18173       -0.11625
C          1.02459       -0.19970       -0.37244
C          3.02763        1.11377       -0.54076
C          4.52949        1.23864       -0.40798
C          5.11336        2.14403        0.39597
C          5.45590        0.36812       -1.24126
C          6.25057       -0.37862       -1.95604
H          2.27892       -1.40801        1.59356
H          2.29711        0.33091        1.95080
H          3.78922       -0.53036        1.51047
H          0.60122       -1.17902       -0.12457
H          0.81561       -0.02722       -1.43399
H          0.49048        0.56192        0.20841
H          2.53783        1.92953        0.00934
H          2.78765        1.27707       -1.60066
H          4.52616        2.81872        1.01122
H          6.19376        2.22837        0.45970
H          6.89489       -0.99395       -2.53897
