18

C          1.03642        0.13192       -0.05663
N          2.49419        0.10508       -0.00682
C          3.06141        1.23711       -0.73523
C          4.57117        1.22934       -0.68265
C          5.27793        0.07948       -1.35669
C          5.25067        2.23736       -0.09906
C          6.67085        2.32264       -0.05544
N          7.82767        2.40279       -0.03267
H          0.63663       -0.72694        0.49191
H          0.66843        0.07218       -1.08656
H          0.63945        1.03690        0.41369
H          2.81015       -0.76526       -0.43179
H          2.67752        2.16982       -0.30254
H          2.74647        1.21875       -1.78598
H          4.57374       -0.66889       -1.73245
H          5.94842       -0.42911       -0.65576
H          5.85673        0.43408       -2.21602
H          4.71800        3.06038        0.36905
