22

C          1.39402       -0.60143       -1.09017
C          2.12116        0.01759        0.09477
C          1.96286       -0.81605        1.33453
C          2.93150       -1.41161        2.04850
C          4.40736       -1.41210        1.74976
C          5.20836       -2.25378        2.71148
C          6.71280       -2.26913        2.64339
C          6.02466       -1.60978        3.80480
H          1.42852        0.07438       -1.95099
H          0.34063       -0.79442       -0.85783
H          1.85683       -1.54861       -1.38483
H          1.69711        1.00897        0.29493
H          3.17406        0.16937       -0.16321
H          0.93806       -0.92858        1.68766
H          2.62390       -1.96881        2.93148
H          4.77819       -0.37973        1.76038
H          4.56859       -1.81196        0.74136
H          4.73215       -3.20685        2.91928
H          7.20949       -1.63501        1.91713
H          7.21534       -3.21414        2.82194
H          6.06689       -0.52801        3.86447
H          6.06357       -2.10549        4.76849
