16

C          3.27574       -1.19616        0.43528
N          2.55776        0.03750        0.15403
C          3.12367        0.91476       -0.78146
C          2.81696        2.27667       -0.71409
C          3.32728        3.16842       -1.65781
C          4.11414        2.66485       -2.67756
N          4.40065        1.35598       -2.82116
C          3.88459        0.52017       -1.88482
H          2.76714       -1.73023        1.24410
H          4.30037       -0.98994        0.76303
H          3.29348       -1.86256       -0.43244
H          2.28650        0.52440        1.00543
H          2.18214        2.65863        0.08075
H          3.11110        4.22876       -1.59697
H          4.53821        3.31889       -3.43414
H          4.10961       -0.52600       -2.06986
