12

O         -1.32019       -1.38034       -0.35874
H         -1.73839       -1.59494       -1.20154
H         -1.48339       -0.41684       -0.23524
O          1.40521       -1.34194       -0.00334
H          0.44761       -1.48074       -0.18804
H          1.61711       -1.97904        0.68986
O          1.30901        1.37056        0.43066
H          1.46721        0.40266        0.33856
H          1.95091        1.78236       -0.16074
O         -1.39399        1.35196       -0.06864
H         -0.43159        1.49496        0.08506
H         -1.82949        1.79136        0.67216