15

C          1.13216        0.04638        0.00868
N          2.42219        0.04245        0.01673
N          2.91445        0.58310       -1.16744
C          4.20638        0.58473       -1.17297
N          4.96204        1.05329       -2.19958
C          6.39839        1.06182       -2.21843
C          6.87791        1.63968       -3.48014
C          7.26922        2.11283       -4.51276
H          0.57678       -0.34822        0.87301
H          0.53607        0.43218       -0.83605
H          4.79970        0.19652       -0.32417
H          4.46639        1.42068       -3.00231
H          6.77805        0.03990       -2.11105
H          6.77817        1.64801       -1.37453
H          7.61555        2.53296       -5.42930
