17

C         -0.45414       -0.75823        0.24329
C         -0.08854       -0.97020        1.67209
N          0.85126       -0.31053        0.74541
C          1.96838       -1.05367        0.39662
N          2.08910       -2.34642        0.29319
N          3.39568       -2.60246        0.05095
C          4.12258       -1.42568       -0.39533
C          3.24223       -0.30181        0.10843
H         -1.11316        0.06190       -0.00150
H         -0.42574       -1.59315       -0.44391
H          0.19060       -1.96366        1.99783
H         -0.46827       -0.29648        2.42437
H          3.53634       -3.41990       -0.53991
H          4.19502       -1.40765       -1.48688
H          5.13059       -1.38173        0.02807
H          3.07544        0.46757       -0.65124
H          3.61508        0.14617        1.03181
