22

C          0.98351       -0.21038       -0.08647
C          2.48040        0.04069       -0.05218
C          2.89553        1.10233       -1.06398
O          4.28493        1.36211       -0.89386
C          4.83448        2.23919       -1.87646
C          4.29116        3.65649       -1.72280
O          6.25079        2.33414       -1.70277
C          6.91471        1.11548       -1.99675
H          0.70869       -0.97069        0.65216
H          0.66715       -0.56363       -1.07258
H          0.42670        0.70347        0.14605
H          3.02208       -0.89080       -0.25357
H          2.78082        0.35350        0.95539
H          2.32245        2.01666       -0.88206
H          2.69990        0.75123       -2.08347
H          4.62205        1.86301       -2.88506
H          4.42425        4.00792       -0.69349
H          3.22488        3.71189       -1.95572
H          4.82478        4.35017       -2.38004
H          7.97846        1.24499       -1.77842
H          6.80705        0.87105       -3.05824
H          6.53476        0.29568       -1.38096
