20

N          2.31383       -1.33042       -0.46989
C          2.52806       -0.11455        0.10082
N          2.14509        0.15020        1.30230
C          3.25565        0.95301       -0.68835
C          4.76524        0.76852       -0.55216
C          5.52595        1.83017       -1.34601
C          7.01144        1.64920       -1.21821
C          7.83302        1.42035       -2.24998
H          1.59840       -1.92047       -0.06562
H          2.37581       -1.39223       -1.48009
H          1.70520       -0.67437        1.71439
H          2.95615        1.93941       -0.31527
H          2.95266        0.88751       -1.73953
H          5.04821       -0.23308       -0.90098
H          5.04714        0.81795        0.50781
H          5.26510        2.82864       -0.97581
H          5.22233        1.79062       -2.39934
H          7.43059        1.72118       -0.21620
H          7.46560        1.34747       -3.26875
H          8.90147        1.30553       -2.09321
