18

C          1.03362        0.00795        0.08556
C          2.55714        0.05276        0.07640
C          3.07630        0.86964       -1.11688
O          4.50001        0.81546       -1.20415
C          3.06380        0.65888        1.37498
C          3.49841        1.17881        2.48891
C          4.00508        1.78493        3.78748
O          4.88161        0.86920        4.42300
H          0.65184       -0.45492       -0.83034
H          0.60404        1.01348        0.16296
H          0.66405       -0.57454        0.93687
H          2.95479       -0.96776        0.01424
H          2.77587        1.92051       -1.04998
H          2.68200        0.46355       -2.05388
H          4.85435        1.18276       -0.37366
H          3.16793        2.00198        4.45719
H          4.54980        2.71101        3.58425
H          4.42136        0.01294        4.44260
