18

C          0.98348       -0.11245       -0.11177
C          2.50245       -0.08519       -0.09505
C          3.06701       -0.76964        1.14995
C          4.58798       -0.74053        1.12237
C          5.28534        0.62011        1.24188
O          5.93395        0.20353        2.47037
C          5.28444       -0.99014        2.47814
O          5.32139       -1.85900        3.31661
H          0.60736        0.42833       -0.98567
H          0.57183        0.36374        0.78403
H          0.61016       -1.13972       -0.16025
H          2.83730        0.95792       -0.13419
H          2.88719       -0.57343       -0.99778
H          2.72304       -1.81039        1.18922
H          2.68698       -0.27127        2.05015
H          5.00503       -1.37603        0.33148
H          4.63908        1.48575        1.41322
H          6.00780        0.84418        0.45182
