16

O          1.15759       -0.67455       -0.36925
C          2.38775       -0.05004       -0.03241
C          2.99313        0.47994       -1.28725
C          4.30240        0.56709       -1.55084
C          4.86371        1.08818       -2.78239
C          6.20133        1.03010       -2.65566
C          6.53460        0.47670       -1.35555
C          5.40529        0.19551       -0.68795
H          0.78661       -1.01916        0.46010
H          3.02258       -0.79541        0.45478
H          2.18080        0.76877        0.66319
H          2.28242        0.82739       -2.03394
H          4.30773        1.45092       -3.63158
H          6.92874        1.34024       -3.38952
H          7.54198        0.32743       -0.99979
H          5.33461       -0.22117        0.30316
