20

C          1.05769       -0.33409        0.22248
C          2.51644        0.06543        0.07279
C          3.06679        0.64901        1.34146
C          4.47684        1.16705        1.35642
C          3.32357        2.14010        1.45912
C          3.04715        2.91861        2.73815
C          4.04840        3.86722        3.35405
O          2.95622        4.34400        2.56443
H          0.67572       -0.74136       -0.71899
H          0.43996        0.52456        0.50388
H          0.94044       -1.10058        0.99596
H          2.61191        0.77612       -0.75646
H          3.10291       -0.82076       -0.19548
H          2.74468        0.10474        2.22246
H          5.04730        1.15846        0.43448
H          5.07179        0.97622        2.24253
H          3.13596        2.72371        0.55621
H          2.32279        2.47435        3.41475
H          5.04035        3.92250        2.92447
H          4.00566        4.03533        4.42243
