17

N          1.09981        0.14352        0.31016
N          2.43566        0.18730        0.10062
C          2.98740        1.36981       -0.04922
C          2.22953        2.70010        0.04387
C          2.90674        3.75458       -0.78199
C          4.20914        3.67882       -1.09643
C          5.10424        2.56252       -0.65340
N          4.33843        1.40345       -0.28412
H          0.80851       -0.83357        0.37340
H          0.59095        0.52424       -0.48995
H          2.19498        3.01143        1.09354
H          1.20390        2.58654       -0.31560
H          2.30580        4.59187       -1.12332
H          4.66054        4.46119       -1.69900
H          5.71684        2.89557        0.19074
H          5.77846        2.29401       -1.47320
H          4.78661        0.49619       -0.34070
