18

N          0.77279        0.18666        0.22065
C          2.23508        0.17427        0.24412
C          2.97039       -0.90227       -0.49619
C          4.40794       -1.22066       -0.41136
C          4.84127       -0.15638       -1.35008
N          5.78281        0.85376       -1.11079
C          4.37743        1.27250       -0.87155
C          3.00547        0.52549       -1.01856
H          0.39912       -0.52476        0.84879
H          0.40783       -0.03760       -0.70408
H          2.66132        0.48537        1.19578
H          2.41237       -1.63289       -1.06844
H          4.64317       -2.22073       -0.78494
H          4.80603       -1.10037        0.60169
H          4.74224       -0.45541       -2.39255
H          6.11398        1.29147       -1.97199
H          4.42962        1.69906        0.12905
H          2.42016        0.76349       -1.90366
