20

C          1.62142        0.39113        1.10938
C          2.49087        0.04324       -0.06866
C          2.60960        0.89205       -1.10631
C          3.18785       -1.31373        0.00378
C          2.81222       -2.25377       -1.16485
O          1.42341       -2.58607       -1.16087
C          4.69129       -1.15337        0.08761
C          5.44674       -1.60008        1.10061
H          1.20020        1.39899        1.03037
H          2.19946        0.34612        2.03813
H          0.78715       -0.31444        1.18206
H          2.08624        1.84341       -1.12332
H          3.22292        0.65927       -1.97049
H          2.83905       -1.80810        0.92219
H          3.36834       -3.19552       -1.08787
H          3.05183       -1.81339       -2.13853
H          1.19383       -2.88096       -0.26397
H          5.18166       -0.64688       -0.74259
H          5.01686       -2.11461        1.95400
H          6.52337       -1.45716        1.09412
