18

O          1.05801        0.05334       -0.09093
C          2.49308        0.05343       -0.03198
C          3.02103       -1.17298       -0.81426
C          3.27148       -0.61493       -2.18450
C          3.27139        0.72225       -2.18443
C          3.02076        1.28012       -0.81412
C          2.93369        0.05327        1.41168
C          2.13355        0.05252        2.48784
H          0.81845        0.05344       -1.03413
H          2.27866       -1.97668       -0.85886
H          3.95999       -1.56767       -0.41028
H          3.46249       -1.23212       -3.05213
H          3.46241        1.33952       -3.05203
H          2.27837        2.08377       -0.85866
H          3.95968        1.67503       -0.41016
H          4.00932        0.05440        1.57933
H          1.05164        0.05151        2.38769
H          2.54316        0.05266        3.49217
