17

N          1.29195        0.15758       -0.05143
C          2.62138       -0.07167        0.02710
N          3.18717       -0.47467        1.10000
N          3.26884        0.17238       -1.13828
C          4.72385        0.27687       -1.16324
C          5.23907        0.72435       -2.53688
C          6.75907        0.72251       -2.53744
C          8.06292        0.72093       -2.53792
H          0.73602       -0.29499        0.65973
H          0.88201        0.05924       -0.97280
H          2.49577       -0.55831        1.84722
H          2.77626        0.71432       -1.82950
H          5.15382       -0.69955       -0.91067
H          5.06515        0.99107       -0.40219
H          4.87389        1.72870       -2.77856
H          4.87924        0.04372       -3.31696
H          9.12880        0.71847       -2.53562
