21

C          1.36409       -0.67038        0.08496
C          2.82169       -0.52459        0.60250
C          3.06081        0.44433       -0.60881
C          1.52556        0.74468       -0.47353
C          3.82359        1.76225       -0.59586
C          4.23497        1.89447       -2.05910
N          4.66793        0.54157       -2.40976
C          3.63275       -0.32750       -1.81484
H          0.59229       -0.80399        0.84701
H          1.22174       -1.42167       -0.69969
H          3.38280       -1.46422        0.61583
H          2.90338       -0.05717        1.59065
H          0.98145        0.98418       -1.39040
H          1.28491        1.51315        0.27930
H          4.70286        1.70629        0.05190
H          3.21933        2.62386       -0.29251
H          5.03180        2.62768       -2.20839
H          3.38346        2.17880       -2.69308
H          5.55566        0.36158       -1.93478
H          4.12017       -1.26466       -1.50412
H          2.86905       -0.56857       -2.54527
