16

C          1.38484        0.21980       -0.64835
C          2.84290        0.49748       -0.48119
C          3.86108       -0.04986       -1.14246
O          4.98750       -0.31796       -0.33620
C          4.46879       -0.06290        0.98909
C          3.38134        0.97898        0.80471
C          4.06832        0.14060       -2.59465
O          3.36273        0.83881       -3.30208
H          1.24534       -0.83742       -0.90622
H          0.89405        0.84878       -1.39242
H          0.86952        0.35716        0.31316
H          4.05208       -0.98706        1.41674
H          5.29029        0.27803        1.62549
H          3.84276        1.98346        0.66611
H          2.68928        1.04039        1.63625
H          5.00984       -0.30907       -2.96803
