20

C          0.95702       -0.11902       -0.04836
C          2.45424        0.03098        0.02875
C          2.99640        1.12594        0.58897
C          3.23813       -1.12400       -0.56576
C          4.76513       -1.00773       -0.50284
C          5.45457       -2.21551       -1.12667
C          6.94741       -2.04303       -1.03606
O          7.68865       -2.05291       -2.01389
H          0.43292        0.73743        0.38948
H          0.63649       -1.01571        0.49173
H          0.63698       -0.20548       -1.09173
H          2.37478        1.91956        0.99470
H          4.06743        1.27937        0.66308
H          2.93818       -1.23655       -1.61575
H          2.93630       -2.04413       -0.04834
H          5.08914       -0.90777        0.54112
H          5.09313       -0.10041       -1.02634
H          5.17307       -2.32686       -2.17898
H          5.18944       -3.13695       -0.59835
H          7.35726       -1.93071       -0.01745
