16

C          2.52489       -1.11856       -0.60919
C          2.32450        0.12204       -0.14506
C          3.35009        1.22086       -0.19863
C          2.85979        2.42768       -0.98204
C          2.94389        3.53306       -0.22117
C          3.42798        3.26138        1.14054
O          2.74536        2.34381        2.00683
C          3.75224        1.77962        1.15891
H          1.74973       -1.87411       -0.52976
H          3.46432       -1.41262       -1.07002
H          1.37060        0.36547        0.31911
H          4.26039        0.85790       -0.69383
H          2.51802        2.39201       -2.00486
H          2.66406        4.52624       -0.54761
H          4.14968        3.94883        1.56378
H          4.66798        1.40841        1.58558
