20

O          2.67074       -1.19360        0.01107
C          2.24941        0.15325        0.17697
C          2.84197        1.02209       -0.92062
C          4.36448        0.99716       -0.90038
O          4.85663        1.84850       -1.93618
C          6.29652        1.88596       -1.97644
C          6.88397        2.75986       -3.04686
C          6.91826        3.20372       -1.61315
H          2.25052       -1.71637        0.71502
H          2.57025        0.49937        1.16481
H          1.15632        0.18221        0.13331
H          2.48493        2.05344       -0.81591
H          2.49805        0.67276       -1.90231
H          4.73668       -0.01905       -1.07043
H          4.73803        1.35660        0.06551
H          6.84712        0.97883       -1.74266
H          6.20090        3.26082       -3.72221
H          7.81133        2.43843       -3.50490
H          6.26133        4.01355       -1.31983
H          7.86933        3.18665       -1.09531
