20

C          1.17045       -0.06887        0.09200
C          2.69234        0.05574        0.03658
C          3.19385        1.20402        0.91429
C          4.54423        0.70910        1.37161
C          4.31689       -0.78075        1.50261
O          3.26565       -1.14101        0.59657
C          3.13545        0.21541       -1.40659
C          3.92428       -0.61977       -2.09892
H          0.83139       -0.24310        1.11994
H          0.82425       -0.92845       -0.49374
H          0.67419        0.83156       -0.28645
H          2.54807        1.33360        1.79224
H          3.24798        2.16866        0.39919
H          4.88184        1.16700        2.30565
H          5.30085        0.91053        0.60493
H          3.99087       -1.04677        2.51318
H          5.21509       -1.35844        1.26564
H          2.75494        1.09628       -1.92039
H          4.32792       -1.52237       -1.65033
H          4.17427       -0.42087       -3.13614
