15

N          0.91145        0.03983        0.02394
C          2.17242        0.03983        0.02394
C          3.69242        0.03983        0.02394
C          4.34512        1.21710       -0.03141
C          5.83951        1.32840       -0.12499
C          6.53075        0.00071       -0.24974
C          5.88591       -1.17628       -0.18866
C          4.39824       -1.29174        0.00854
H          3.78993        2.15318       -0.03406
H          6.21820        1.84892        0.76161
H          6.09087        1.93948       -0.99929
H          7.60763        0.01795       -0.39754
H          6.44701       -2.10195       -0.28596
H          4.21239       -1.81084        0.95660
H          3.98917       -1.91192       -0.79740
