22

C          0.74419        0.22484       -0.27052
C          2.24121        0.00835       -0.21467
O          2.89027        1.15759       -0.75844
C          4.31873        1.13774       -0.62957
C          4.96666        0.01874       -1.46460
C          4.62562        0.06890       -2.95070
C          4.79296        2.49723       -1.06218
C          5.56367        3.31580       -0.33166
H          0.21297       -0.67837        0.04336
H          0.42696        0.48746       -1.28489
H          0.44940        1.05095        0.38322
H          2.48997       -0.87411       -0.81297
H          2.56183       -0.15348        0.81954
H          4.56740        0.98430        0.42941
H          4.64318       -0.95429       -1.07745
H          6.05632        0.04345       -1.34423
H          3.57362        0.31479       -3.12361
H          4.82388       -0.90233       -3.41506
H          5.24199        0.81376       -3.46402
H          4.46619        2.83218       -2.04424
H          5.90782        3.04601        0.66112
H          5.85801        4.28787       -0.71745
