22

C          1.12225        0.05503       -0.12638
C          2.58245       -0.36260       -0.03608
C          2.82604       -1.69253       -0.75104
C          4.27805       -2.13743       -0.70545
C          4.82915       -2.39312        0.67623
C          4.73306       -3.07587       -1.80415
C          5.20865       -1.65317       -1.79989
O          6.59008       -1.48385       -1.45417
H          0.96523        1.00268        0.39826
H          0.47144       -0.69707        0.33163
H          0.81404        0.18780       -1.16815
H          2.85670       -0.44197        1.02163
H          3.21435        0.41961       -0.47198
H          2.49562       -1.59890       -1.79406
H          2.20508       -2.47542       -0.29894
H          4.91622       -1.45727        1.23717
H          5.82380       -2.85126        0.64956
H          4.16959       -3.06941        1.22935
H          5.45539       -3.85022       -1.56791
H          4.02551       -3.36930       -2.57166
H          4.80536       -0.99662       -2.56480
H          6.71280       -0.70380       -0.88606
