16

O          1.34974       -0.04483       -0.83802
C          2.38942       -0.06754       -0.19695
C          2.79585       -1.25515        0.59618
C          3.89187       -0.95329        1.31339
C          4.34707        0.45762        1.15115
C          3.64333        1.49023        2.06836
C          3.26974        2.29022        0.80714
C          3.49362        1.01929       -0.02756
H          2.26035       -2.18723        0.56045
H          4.39692       -1.65163        1.96885
H          5.42980        0.58435        1.03762
H          4.29032        2.01164        2.77938
H          2.76625        1.11387        2.61104
H          3.98498        3.08797        0.57326
H          2.26005        2.70781        0.78824
H          4.04763        1.18846       -0.95731
