16

O          1.60879       -0.51634       -0.65409
C          2.82776       -0.01813       -0.08833
C          3.78117       -1.00011        0.52764
C          4.08649       -0.39384       -0.81068
O          4.96582        0.76590       -0.88263
C          4.16006        1.86150       -0.57712
C          4.44515        3.08328       -1.03824
C          2.91833        1.45124        0.16647
H          0.96134       -0.72720        0.03866
H          3.48934       -2.04453        0.54651
H          4.36954       -0.68949        1.38013
H          4.00570       -1.01798       -1.69305
H          5.33671        3.25130       -1.63108
H          3.77792        3.92018       -0.86975
H          2.03235        1.98947       -0.18705
H          3.04129        1.63920        1.23749
