16

C          1.00084       -0.16879        0.00395
C          2.49969        0.07685        0.08409
C          2.92554        1.14471       -0.85372
C          3.37720        1.05878       -2.10382
C          3.68324        2.39418       -2.64530
O          3.39543        3.28478       -1.56982
C          2.94965        2.57021       -0.49908
O          2.62660        3.03632        0.57746
H          0.71098       -0.96924        0.69227
H          0.70329       -0.47044       -1.00657
H          0.43464        0.72982        0.27126
H          3.02898       -0.85527       -0.14871
H          2.77766        0.34064        1.11068
H          3.49283        0.14059       -2.66157
H          3.04900        2.64292       -3.50048
H          4.73588        2.49169       -2.92532
