19

N          1.33545       -0.07282       -0.61265
C          2.45867       -0.02140        0.02173
N          2.99183       -1.13635        0.56575
C          4.03633       -1.21181        1.56915
C          5.26596       -0.39916        1.19844
C          5.11166        1.09032        1.50923
C          3.72794        1.67126        1.24069
N          3.14067        1.14062        0.03853
H          0.96485       -1.01995       -0.49026
H          3.07480       -1.87453       -0.12763
H          4.32470       -2.26365        1.66610
H          3.63795       -0.90972        2.54366
H          5.50321       -0.53321        0.13598
H          6.13027       -0.77406        1.76025
H          5.86501        1.64099        0.93449
H          5.35155        1.26535        2.56648
H          3.82428        2.76219        1.13995
H          3.06120        1.50314        2.09479
H          2.57358        1.83070       -0.44705
