16

O          1.04105       -0.02322        0.00744
C          2.46029       -0.01441       -0.06881
C          2.89992        1.21253       -0.83958
C          3.61932        1.05855       -1.96670
C          3.91743       -0.35699       -2.34282
C          2.65296       -1.25985       -2.35870
C          2.93530       -1.27474       -0.83115
O          4.38089       -1.15359       -1.17732
H          0.77100        0.81865        0.41041
H          2.87378       -0.00146        0.94472
H          2.64696        2.19834       -0.46723
H          3.98065        1.88405       -2.56605
H          4.58308       -0.46164       -3.20382
H          2.78918       -2.22477       -2.85733
H          1.71373       -0.80674       -2.68538
H          2.71811       -2.22234       -0.32889
