16

C          0.73003       -0.07029        0.15992
C          2.17798        0.19056       -0.09382
C          3.20379       -0.43340        0.51085
C          4.56745       -0.08679        0.17495
C          5.69849       -0.59979        0.67362
O          5.77355       -1.59589        1.64025
C          7.05143       -1.95243        1.98198
O          8.10842       -1.50584        1.55252
H          0.12878        0.58713       -0.47939
H          0.46188        0.14775        1.19735
H          0.46156       -1.10117       -0.08648
H          2.38147        0.95838       -0.83814
H          3.02780       -1.20407        1.25746
H          4.68586        0.68907       -0.58020
H          6.65936       -0.23955        0.32246
H          6.99381       -2.73850        2.75011
