16

C          1.06664        0.00537        0.01404
C          2.55012        0.06229        0.09678
O          3.23178       -0.71076       -0.89269
C          3.36616        0.72016       -0.99375
C          4.60440        1.42130       -0.61700
C          4.63756        2.66925       -0.11611
C          5.93179        0.74577       -0.79406
O          7.00929        1.25918       -0.51153
H          0.67480       -0.69583        0.75756
H          0.72185       -0.32042       -0.97294
H          0.63946        0.99179        0.21771
H          2.92449        0.04513        1.11185
H          2.83043        1.19194       -1.81236
H          3.72678        3.23700        0.04205
H          5.57230        3.15757        0.14913
H          5.87382       -0.27384       -1.20909
