20

C          1.00664       -0.09461       -0.05606
C          2.51668       -0.07717       -0.02745
C          3.15055        1.17181       -0.67553
C          4.59230        1.13003       -0.14518
C          4.56615       -0.10905        0.75586
C          3.16757       -0.07932        1.34969
O          4.53596       -1.26084       -0.12049
C          3.18196       -1.31946       -0.62932
H          0.59271        0.78921        0.44082
H          0.61181       -0.97857        0.45597
H          0.63499       -0.10797       -1.08602
H          2.65430        2.09259       -0.34744
H          3.11781        1.13854       -1.76966
H          4.81471        2.03734        0.42584
H          5.31109        1.03216       -0.96481
H          5.39487       -0.17709        1.46284
H          2.96091        0.81516        1.94591
H          2.92871       -0.97989        1.92575
H          2.73015       -2.25357       -0.27894
H          3.20451       -1.31807       -1.72338
