20

C          0.94196        0.04328       -0.13315
C          2.46361        0.04658       -0.08793
C          3.08370       -0.25226       -1.42614
C          4.40966       -0.31085       -1.67486
C          5.46208       -0.05469       -0.62524
C          4.93359       -0.59796       -3.06862
C          5.72339       -1.83950       -3.09808
C          6.38538       -2.84149       -3.12283
H          0.53681        0.24815        0.86326
H          0.55664       -0.92755       -0.46183
H          0.56427        0.81188       -0.81576
H          2.79030       -0.70396        0.64090
H          2.79635        1.03154        0.25930
H          2.39062       -0.43332       -2.24704
H          5.04023        0.18369        0.35497
H          6.09179        0.79012       -0.92274
H          6.09976       -0.93415       -0.49169
H          5.54901        0.24624       -3.40087
H          4.10970       -0.68106       -3.78839
H          6.97798       -3.72716       -3.13658
