15

N          1.21103        0.07081        0.17490
C          2.49828        0.04916        0.12807
N          3.30684        0.42800        1.15377
N          4.66356        0.39392        1.10850
C          5.25817        0.77452        2.19362
C          6.76020        0.80451        2.27588
C          7.24726       -0.05226        3.36525
C          7.66727       -0.75067        4.24697
H          0.84233       -0.26397       -0.72287
H          3.04492       -0.28743       -0.77009
H          2.80223        0.72765        1.98505
H          4.70238        1.11129        3.08806
H          7.06034        1.84236        2.45491
H          7.18703        0.48691        1.31892
H          8.05322       -1.37378        5.02160
