18

N          0.94865        0.06341       -0.05603
C          2.40115        0.04200       -0.05912
C          2.90781        0.57441       -1.38962
C          3.34242        1.03111       -2.53093
C          3.80399        1.54298       -3.80293
C          3.95379        3.07899       -3.91058
N          5.18760        2.85551       -4.70347
C          5.33360        1.54159       -4.03125
H          0.61033       -0.38198        0.79372
H          0.61034       -0.50206       -0.83290
H          2.76685       -0.97971        0.08504
H          2.78721        0.66622        0.75254
H          3.25385        1.11630       -4.65363
H          4.13368        3.60196       -2.96274
H          3.15489        3.59446       -4.45134
H          5.93939        3.51706       -4.51515
H          5.94557        1.58300       -3.12144
H          5.71359        0.74328       -4.67534
