18

C          0.91382        0.24905       -0.17604
O          2.27919       -0.12403       -0.33872
C          2.78987       -0.94832        0.73079
C          4.32710       -1.00273        0.60587
O          4.94799       -2.19985        0.14077
C          4.26089       -3.36205        0.26142
C          2.97090       -3.48239        0.55676
C          2.08718       -2.30959        0.78866
H          0.74291        1.18148       -0.72217
H          0.65229        0.40938        0.87415
H          0.26789       -0.51841       -0.60989
H          2.57503       -0.39742        1.65777
H          4.76371       -0.78802        1.59029
H          4.67378       -0.20181       -0.05962
H          4.89694       -4.21327        0.03819
H          2.51707       -4.46921        0.59183
H          1.63623       -2.42471        1.78117
H          1.27198       -2.36728        0.06420
