22

C          0.98778       -0.02263       -0.20475
C          2.49668       -0.06807       -0.00937
C          2.94085       -0.12407        1.46820
C          2.40656       -1.38329        2.19094
C          2.79747       -1.45013        3.64528
C          3.50114       -2.45106        4.18876
C          4.45667       -0.07253        1.50747
C          5.16308        0.89371        2.10791
H          0.75327        0.17122       -1.25682
H          0.53378        0.77189        0.39558
H          0.52071       -0.97463        0.06318
H          2.92539        0.82824       -0.47732
H          2.89750       -0.92870       -0.56037
H          2.53571        0.76145        1.97691
H          2.73924       -2.28559        1.66205
H          1.31106       -1.38825        2.15902
H          2.47977       -0.62396        4.27789
H          3.84456       -3.29413        3.59771
H          3.75857       -2.44011        5.24361
H          4.99077       -0.88548        1.01938
H          4.68065        1.72021        2.62078
H          6.24839        0.86746        2.10805
