18

N          3.12744        0.63034        0.88200
C          2.49773       -0.00306       -0.14908
N          1.28271        0.34571       -0.43604
C          3.17893       -1.07624       -0.94872
C          2.42157       -1.92961       -1.65935
C          4.68285       -1.11424       -0.96638
C          5.33664       -1.93071        0.12375
C          4.74288       -2.67835        1.06487
H          2.52293        1.06482        1.56648
H          3.87328        0.09992        1.32211
H          0.99430        1.11328        0.17092
H          1.33708       -1.86981       -1.64902
H          2.86792       -2.70994       -2.26586
H          5.07593       -0.09034       -0.91689
H          5.02793       -1.50942       -1.93066
H          6.42607       -1.90524        0.11167
H          3.66403       -2.77900        1.13607
H          5.33696       -3.23463        1.78436
