20

C          1.00744        0.11302       -0.16644
C          2.52080        0.05777        0.01031
C          3.03413       -0.26903        1.39137
C          2.27635       -0.52129        2.47221
C          4.53273       -0.28399        1.59800
O          5.01043       -0.15696        2.72511
C          5.41016       -0.48750        0.37124
C          6.89209       -0.51529        0.70481
H          0.76367        0.35554       -1.20624
H          0.55833        0.88207        0.47021
H          0.54448       -0.85137        0.06690
H          2.92886        1.03046       -0.29189
H          2.90435       -0.68834       -0.69563
H          1.19269       -0.51687        2.43812
H          2.72102       -0.73249        3.44279
H          5.22952        0.33154       -0.33209
H          5.13298       -1.43589       -0.10116
H          7.20713        0.42240        1.17442
H          7.48194       -0.65497       -0.20663
H          7.12684       -1.33332        1.39343
