20

C          1.24291       -0.75757        0.31501
O          2.36509        0.07490        0.05502
C          2.88198       -0.08248       -1.26079
C          3.99100        0.91819       -1.52823
O          4.76914        0.35392       -2.58887
C          4.73426       -1.07370       -2.42965
C          4.57826       -1.71966       -3.79501
C          3.59675       -1.40316       -1.46984
H          0.92417       -0.58877        1.34727
H          1.50283       -1.81471        0.20547
H          0.41570       -0.50166       -0.35293
H          2.08677        0.04752       -2.00624
H          4.63311        1.06602       -0.65205
H          3.60498        1.89646       -1.83092
H          5.69048       -1.38450       -1.99405
H          3.65787       -1.38464       -4.28426
H          4.56023       -2.81144       -3.71678
H          5.40741       -1.43061       -4.44989
H          4.00086       -1.78495       -0.52455
H          2.92201       -2.17726       -1.85249
