20

C          1.02055       -0.08567       -0.02198
C          2.54357       -0.06900        0.06564
C          3.04212        1.09061        0.92381
C          4.35615        0.56503        1.42072
O          5.25617        1.27756        1.84721
C          4.42151       -0.93591        1.39862
C          3.10949       -1.34564        0.71875
C          3.33919       -2.45376       -0.30692
H          0.64986        0.83972       -0.47477
H          0.56583       -0.17666        0.97106
H          0.66887       -0.92528       -0.62972
H          2.95311        0.04121       -0.94796
H          2.39577        1.28645        1.78301
H          3.18126        2.00011        0.33300
H          4.45383       -1.30968        2.42670
H          5.31101       -1.25927        0.85114
H          2.41632       -1.71855        1.48425
H          4.05303       -2.13964       -1.07744
H          2.40668       -2.72706       -0.81023
H          3.74256       -3.34995        0.17430
