20

C          1.71198       -0.62347       -1.11962
C          2.60357       -0.08316       -0.03371
C          2.76740       -0.76535        1.11613
C          3.27243        1.25325       -0.34505
C          2.89148        2.32067        0.65712
C          2.27951        3.47201        0.34235
C          4.77703        1.11843       -0.42373
C          5.51065        1.41435       -1.50675
H          1.33700       -1.62598       -0.88709
H          2.25947       -0.68909       -2.06568
H          0.84763        0.03376       -1.26018
H          2.26404       -1.71150        1.29148
H          3.40357       -0.39639        1.91417
H          2.91212        1.57966       -1.33166
H          3.14608        2.13791        1.69840
H          2.01088        3.71370       -0.68086
H          2.04141        4.20104        1.11038
H          5.29012        0.76866        0.46959
H          5.05479        1.77632       -2.42291
H          6.59052        1.30604       -1.49180
