18

C          1.06650       -0.01841       -0.11214
C          2.58267       -0.07836        0.00066
C          3.14987        1.00041        0.90568
O          4.43248        0.52716        1.34379
C          4.31129       -0.85426        1.36281
C          5.22432       -1.61359        1.97731
C          3.08493       -1.35028        0.65696
O          3.40074       -2.32245       -0.32791
H          0.74854        0.92509       -0.56768
H          0.58991       -0.09232        0.87199
H          0.68993       -0.84045       -0.72936
H          3.01098        0.02119       -1.00613
H          2.52730        1.18191        1.79023
H          3.28031        1.94875        0.37412
H          6.07567       -1.16274        2.47595
H          5.12545       -2.69364        2.00951
H          2.36586       -1.77097        1.36717
H          4.24707       -2.05662       -0.72982
