18

C          1.03519       -0.05050       -0.05883
C          2.55488       -0.04920       -0.19760
C          3.09076       -1.30926       -0.88460
C          3.38494       -0.79863       -2.24220
C          3.29087        0.52776       -2.22916
O          2.93680        1.08721       -1.00589
C          3.53029        1.41199       -3.33611
C          3.44300        2.74720       -3.28287
H          0.69427       -0.89006        0.55436
H          0.54578       -0.10929       -1.03729
H          0.69647        0.88250        0.40435
H          3.00497        0.06787        0.79489
H          2.36960       -2.13180       -0.88519
H          4.01476       -1.65578       -0.40944
H          3.66132       -1.41051       -3.08667
H          3.79859        0.94582       -4.28132
H          3.17980        3.26638       -2.36622
H          3.63596        3.35094       -4.16279
