14

O          1.23103        0.10558       -0.76947
C          2.27310        0.01044        0.19602
C          2.59908       -1.40339        0.88471
C          3.96469       -0.63319        1.27895
C          3.51076        0.61662        1.96735
C          2.43505        1.02714        1.27165
C          3.84464       -0.21867       -0.32660
O          4.53153       -0.18283       -1.31119
H          0.40958        0.01301       -0.25950
H          2.69787       -2.26445        0.21256
H          1.95828       -1.68444        1.72717
H          4.82029       -1.18850        1.64653
H          3.97268        1.08935        2.82043
H          1.83450        1.90831        1.43025
