22

C          0.99892        0.03643       -0.05744
C          2.51808        0.06317       -0.05351
C          3.09965       -0.94257       -1.04078
C          4.62371       -0.90534       -1.03495
O          5.09934       -1.91644       -1.92131
C          6.52113       -1.98278       -1.93082
O          7.06990       -2.34167       -0.66705
C          6.66153       -3.64282       -0.26400
H          0.60689        0.76763        0.65634
H          0.62299       -0.95152        0.22719
H          0.60475        0.28286       -1.04835
H          2.87767       -0.15921        0.95803
H          2.86240        1.07275       -0.30533
H          2.73500       -0.74259       -2.05540
H          2.76136       -1.95678       -0.79395
H          4.99096       -1.09348       -0.01977
H          4.98294        0.07490       -1.36806
H          6.93354       -1.01130       -2.22568
H          6.83114       -2.71134       -2.68829
H          7.11209       -3.85369        0.70921
H          7.00565       -4.39328       -0.98141
H          5.57403       -3.69618       -0.15304
