14

O          0.98717       -0.11589        0.04826
C          2.40465       -0.06629        0.10149
C          2.86910        0.01675        1.52874
C          2.18944       -0.45348        2.58659
C          2.72435       -0.31724        3.95475
O          2.11267       -0.74834        4.92346
C          2.95111       -1.27154       -0.53019
C          3.37281       -2.26982       -1.04834
H          0.66480        0.71458        0.43366
H          2.72572        0.82894       -0.44189
H          3.83234        0.50016        1.66975
H          1.23871       -0.96820        2.49324
H          3.69287        0.19920        4.05395
H          3.72283       -3.16664       -1.50547
