20

C          2.95539        1.43507       -0.19201
C          2.65661       -0.01972        0.03874
C          1.81712       -0.42090        1.00837
C          3.33158       -0.99240       -0.89221
O          4.74339       -0.86001       -0.75395
C          5.43258       -1.73648       -1.63908
C          6.89901       -1.51957       -1.44562
C          7.75182       -1.16153       -2.41508
H          2.40250        2.08198        0.49786
H          2.67547        1.72222       -1.21075
H          4.02171        1.63797       -0.05248
H          1.33149        0.29181        1.66853
H          1.59995       -1.47125        1.17533
H          3.03543       -0.77135       -1.92476
H          3.04106       -2.02464       -0.66356
H          5.13335       -1.53232       -2.67355
H          5.18618       -2.77604       -1.39533
H          7.27570       -1.66910       -0.43678
H          7.41991       -0.99130       -3.43433
H          8.80652       -1.01964       -2.20009
