22

C          0.91892       -0.13937        0.17051
C          2.43081       -0.19034       -0.00878
C          2.95925        0.92014       -0.93352
O          2.42396        2.20445       -0.56666
C          2.97372        2.79570        0.60370
C          4.50703        0.93063       -1.07499
C          5.08615       -0.39255       -1.55828
O          4.92006        1.94019       -2.00308
H          0.57599       -1.02106        0.72140
H          0.40757       -0.12483       -0.79742
H          0.61413        0.74640        0.73627
H          2.69253       -1.16998       -0.42340
H          2.90272       -0.12546        0.97818
H          2.54087        0.73689       -1.93185
H          2.31358        3.61095        0.91362
H          3.95602        3.22405        0.38738
H          3.04442        2.08308        1.42878
H          4.97414        1.18343       -0.11739
H          4.63351       -0.69288       -2.51073
H          4.93884       -1.19196       -0.82732
H          6.16208       -0.29232       -1.73827
H          4.23948        2.01176       -2.69239
