18

C          0.94166        0.11814        0.20555
C          2.42423        0.03303       -0.00949
C          3.02202       -1.10648       -0.40239
C          4.48524       -1.29658       -0.67691
C          5.23879       -0.13483       -1.25863
C          4.90495        1.15880       -1.37111
O          3.81934        1.82525       -0.88591
C          3.21389        1.27682        0.28281
H          0.44134       -0.83892        0.02257
H          0.50315        0.85892       -0.47094
H          0.72256        0.41387        1.23675
H          2.41176       -1.99669       -0.54722
H          4.56223       -2.11186       -1.40977
H          4.98738       -1.65075        0.23033
H          6.18763       -0.42276       -1.71188
H          5.52281        1.85465       -1.93007
H          2.54945        2.05331        0.67940
H          3.96465        1.10224        1.06485
