20

C          1.00202        0.05794       -0.08360
C          2.51726        0.01238       -0.02808
C          3.20336        1.05293        0.88636
C          4.25877       -0.01391        1.22852
C          3.23189       -1.11694        0.81217
C          2.45068       -1.67116        2.00757
C          3.83671       -2.29099       -0.04518
O          4.71898       -3.07638        0.29947
H          0.66625        0.92435       -0.66260
H          0.55664        0.13141        0.91333
H          0.60837       -0.84178       -0.56690
H          2.91449        0.06302       -1.05375
H          2.60471        1.36892        1.74838
H          3.58509        1.94479        0.38167
H          4.58781       -0.02440        2.27189
H          5.14744        0.03316        0.58742
H          2.03856       -0.87551        2.63667
H          3.09816       -2.28840        2.64002
H          1.61820       -2.29716        1.66865
H          3.39718       -2.38688       -1.05320
