20

C          1.02714        0.47030       -0.36619
C          2.51994        0.46575       -0.40832
C          3.24338       -0.52125       -0.96044
C          4.74797       -0.53432       -0.95902
C          5.32822       -1.13781       -2.23675
C          6.84705       -1.13779       -2.21567
C          7.54405       -1.74862       -3.40346
O          7.50087       -0.66548       -1.28628
H          0.67444        1.32702        0.21750
H          0.64386       -0.43651        0.11214
H          0.60949        0.55587       -1.37359
H          3.02347        1.30468        0.06810
H          2.73217       -1.37057       -1.40915
H          5.08617       -1.12176       -0.09693
H          5.13613        0.48374       -0.82626
H          4.99831       -0.57111       -3.11489
H          4.99531       -2.17688       -2.34547
H          6.81600       -2.12040       -4.12860
H          8.16175       -2.58495       -3.06664
H          8.16336       -0.98935       -3.88704
