18

C          0.96737        0.05744       -0.03647
C          2.45380        0.05025       -0.09016
C          3.25824       -1.02074       -0.16488
C          4.70733       -0.63023       -0.13650
C          4.64721        0.86937       -0.45043
O          4.78209        1.08611       -1.86982
C          3.24381        1.32159        0.01008
O          2.70667        2.31513       -0.84744
H          0.55998       -0.95803       -0.06943
H          0.55414        0.61117       -0.88518
H          0.62191        0.52953        0.88833
H          2.92036       -2.04817       -0.20201
H          5.27902       -1.18462       -0.88657
H          5.11626       -0.82074        0.86183
H          5.44525        1.43487        0.03971
H          4.18804        0.44655       -2.30759
H          3.24850        1.68247        1.04462
H          3.33884        2.39354       -1.58914
