16

C          1.35272       -1.21423       -0.26191
C          2.12124        0.03488        0.15542
C          1.29542        1.09241        0.29879
C         -0.05304        0.66980       -0.16861
O         -1.27979        1.14925        0.36463
C         -2.07432        0.03230        0.02660
C         -1.40543       -1.11455       -0.16191
C         -0.01779       -0.80078        0.24088
H          1.71761       -2.10303        0.26007
H          1.39972       -1.37375       -1.34307
H          3.18882        0.05233        0.32429
H          1.57869        2.09924        0.56305
H         -0.08040        0.83081       -1.26185
H         -3.13434        0.22561        0.00410
H         -1.83055       -2.08347       -0.36502
H         -0.00681       -0.92317        1.34040
