16

C          2.51551        0.04733        1.31667
C          2.34681        0.09808       -0.01398
C          3.08894        1.07095       -0.89656
C          2.21894        2.02644       -1.65592
C          1.33984        3.03359       -0.95968
O          2.59890        3.40474       -1.53335
C          1.36712       -0.88973       -0.62623
C          0.52675       -1.73708       -1.15142
H          3.20195        0.71601        1.82745
H          1.97300       -0.66630        1.93036
H          3.69093        0.50027       -1.61609
H          3.81302        1.63646       -0.29513
H          1.92404        1.66220       -2.63156
H          1.26167        3.00386        0.12024
H          0.44355        3.36699       -1.46786
H         -0.15927       -2.43108       -1.57830
