18

C          0.71727        0.31450       -0.81946
O          2.02362        0.91605       -0.60860
C          2.25726       -0.00867        0.48993
C          1.14895       -0.94529       -0.04693
C          1.68052       -2.11585       -0.88236
C          1.41063       -3.27831        0.01909
C          0.61148       -2.95319        1.03990
C          0.20327       -1.51508        1.00721
H          0.49373        0.17800       -1.88089
H         -0.06659        0.92072       -0.35376
H          2.06277        0.48194        1.44998
H          3.27743       -0.40268        0.48741
H          2.74536       -2.02505       -1.11301
H          1.12128       -2.23908       -1.81592
H          1.80932       -4.26892       -0.15631
H          0.27778       -3.64722        1.79965
H          0.32444       -1.04188        1.98578
H         -0.84511       -1.43760        0.69948
