20

C          2.66493       -0.39730       -1.45846
C          2.77297        0.08598       -0.01725
O          1.67317        0.95595        0.25365
C          2.71035       -1.08454        0.93995
C          2.84328       -0.82404        2.44782
O          3.49182       -2.12787        2.59928
C          3.92122       -2.03742        1.19348
C          5.37789       -1.59108        1.15689
H          2.63113        0.45063       -2.14982
H          1.73611       -0.96186       -1.61208
H          3.50212       -1.04589       -1.72813
H          3.68985        0.67174        0.11459
H          0.85392        0.51587       -0.03685
H          1.79725       -1.66932        0.73962
H          3.51299       -0.01293        2.75318
H          1.90222       -0.76194        2.99937
H          3.79473       -2.99879        0.68131
H          5.75230       -1.35367        2.16049
H          5.52631       -0.71081        0.52793
H          6.01145       -2.39485        0.76586
