14

O          0.97046        0.09892       -0.01674
C          2.39191        0.09210       -0.04294
C          2.97175       -1.15192        0.65421
O          3.32480       -0.77365        2.01266
C          3.36873        0.60346        1.96001
C          2.88200        1.16217        0.85708
C          2.86658        0.25978       -1.41945
C          3.23804        0.39525       -2.55406
H          0.71233        0.06509        0.92024
H          3.88857       -1.51854        0.17663
H          2.24880       -1.97489        0.70828
H          3.75887        1.08247        2.84428
H          2.80924        2.22068        0.66282
H          3.55581        0.51740       -3.56227
