18

C          1.02503        0.05708        0.06625
C          2.53932        0.05388        0.04403
C          3.25407        1.15613        0.86019
C          4.34302        0.09983        1.24231
O          4.75275        0.15549        2.63671
C          3.25485       -0.98323        0.94093
C          5.61211        0.07208        0.28451
O          5.63471       -0.10983       -0.93243
H          0.63514        0.90251       -0.50972
H          0.63415        0.13209        1.08601
H          0.63277       -0.86192       -0.38099
H          2.89932        0.01372       -0.99443
H          2.68478        1.53471        1.71857
H          3.60210        2.01064        0.27400
H          3.93011        0.11074        3.15396
H          2.68372       -1.29781        1.82292
H          3.60373       -1.87957        0.41946
H          6.56433        0.24268        0.81486
