18

C          0.65763        1.11208        1.42820
C          2.14649        1.63284        2.17771
C          2.61627        0.57662        0.64588
C          3.86609        1.47248        1.94228
C          4.83866        0.37322        0.36310
C          5.53137        0.97721        1.24046
N          4.09988        0.65924        0.78469
N          2.24529        1.41719        1.87089
H          0.43146        0.08172        1.60073
H          0.43146        1.63395        0.52308
H          2.20079        1.10394        3.45105
H          2.20075        3.01005        2.12751
H          2.50954       -0.02998       -0.21663
H          4.72155        1.81608        2.44217
H          5.19821        0.80855       -0.64950
H          5.19829       -0.72845        0.41743
H          6.70703        1.24876        1.62579
H          0.81810        1.75696        2.35718
