20

C          0.97631       -0.05413        0.10338
C          2.49395        0.04041       -0.02031
C          2.86641        0.83134       -1.27198
O          2.97184        0.67479        1.16833
C          4.39296        0.68373        1.28404
O          4.77410        1.17716        2.57213
C          6.12600        1.34940        2.69359
C          6.66400        1.90374        3.78022
H          0.53150       -0.52276       -0.78004
H          0.53008        0.93812        0.23653
H          0.70046       -0.64393        0.98430
H          2.90244       -0.97555       -0.08205
H          2.61091        1.88989       -1.15606
H          2.35945        0.43767       -2.15810
H          3.94363        0.78098       -1.46123
H          4.80881        1.34233        0.51332
H          4.77787       -0.33578        1.16400
H          6.72790        1.01221        1.85988
H          6.03669        2.23448        4.60212
H          7.73595        2.03930        3.86725
