20

C          0.95011       -0.03277        0.00318
C          2.46598       -0.01882        0.01471
O          2.92777       -0.40905       -1.27488
C          4.35036       -0.42835       -1.34852
C          4.74871       -0.86202       -2.73719
C          5.49885       -1.96260       -2.93390
C          4.23218        0.02958       -3.83986
O          4.72005       -0.35925       -5.11833
H          0.54929        0.26304        0.97668
H          0.57551       -1.03158       -0.24451
H          0.56363        0.65018       -0.76067
H          2.83856       -0.71876        0.77054
H          2.82742        0.98872        0.24740
H          4.74447       -1.11394       -0.58878
H          4.74662        0.57396       -1.14733
H          5.83620       -2.57695       -2.10461
H          5.76856       -2.30352       -3.92870
H          4.54461        1.06522       -3.66738
H          3.13918        0.00207       -3.87802
H          5.68696       -0.28754       -5.07781
