16

C          1.15903        0.00633       -0.04801
C          2.66190        0.09498       -0.04893
C          3.25828        1.47569       -0.06603
C          3.38982       -1.03984       -0.03464
C          4.87843       -1.10651       -0.03387
O          5.62662       -0.13914       -0.04643
C          5.51079       -2.48102       -0.01552
O          4.84528       -3.50427       -0.00278
H          0.68876        0.99455       -0.06096
H          0.80516       -0.51113        0.85000
H          0.80534       -0.53435       -0.93235
H          2.48661        2.25212       -0.07518
H          3.86879        1.62345       -0.96271
H          3.86954        1.64530        0.82614
H          2.88646       -2.00400       -0.02237
H          6.61226       -2.46620       -0.01500
