22

C          0.87465        0.24682       -0.26979
C          2.38341        0.17265       -0.11490
C          2.77746       -0.35709        1.25681
O          4.19701       -0.47161        1.31621
C          4.73634       -0.89348        2.58762
C          4.41506       -2.33956        3.03412
C          5.86349       -2.45229        3.53586
C          6.22610       -1.31222        2.56880
H          0.61128        0.65022       -1.25226
H          0.43280        0.89392        0.49457
H          0.42416       -0.74705       -0.17934
H          2.82494        1.16495       -0.26630
H          2.80700       -0.46931       -0.89640
H          2.33196       -1.34397        1.42256
H          2.43527        0.32293        2.04413
H          4.52762       -0.14787        3.36713
H          4.17446       -3.02011        2.20964
H          3.64606       -2.43052        3.80624
H          6.35443       -3.41017        3.34377
H          5.98508       -2.19184        4.59275
H          6.58230       -1.65301        1.59025
H          6.92895       -0.57418        2.96556
