20

C          1.00105        0.04353        0.09474
C          2.53646        0.07074        0.12215
C          3.01373        0.33974        1.55430
O          2.99633       -1.23602       -0.26185
C          3.06798        1.12726       -0.90287
O          2.55872        2.42594       -0.59107
C          4.57614        1.18258       -1.02192
C          5.31746        2.27400       -1.26712
H          0.61051       -0.74296        0.75083
H          0.63712       -0.18836       -0.91289
H          0.56780        0.99806        0.40988
H          2.63464       -0.42869        2.23866
H          2.67931        1.31505        1.92110
H          4.10557        0.29351        1.62487
H          2.60277       -1.88291        0.34896
H          2.68688        0.85514       -1.89523
H          3.11444        2.78109        0.12323
H          5.08638        0.22350       -0.93925
H          4.86784        3.25032       -1.42107
H          6.39628        2.20089       -1.36380
