16

O          1.03935       -0.02695        0.20204
C          2.26076       -0.04760        0.07270
C          3.03835       -1.34466        0.06375
C          3.98181       -1.38079       -1.12387
C          4.80701       -0.11479       -1.16287
O          6.03135       -0.14068       -1.25513
C          4.03231        1.18358       -1.16720
C          3.07662        1.22466        0.01089
H          2.34113       -2.18747        0.01959
H          3.59179       -1.40760        1.00728
H          3.42695       -1.44745       -2.06652
H          4.64616       -2.24822       -1.05743
H          3.48879        1.24424       -2.11682
H          4.73063        2.02522       -1.12011
H          2.40433        2.08398       -0.07744
H          3.62328        1.31409        0.95613
