22

C          0.88654       -1.13111        1.55245
C          2.40583       -1.15074        1.63788
C          3.03215       -1.45799        0.27473
C          4.54556       -1.46392        0.32503
C          5.25277       -0.35029        0.06638
C          5.22138       -2.72398        0.61474
C          4.98367       -3.88316       -0.31333
C          6.06122       -2.84573        1.65779
H          0.45306       -0.90479        2.53128
H          0.49955       -2.10157        1.22542
H          0.54316       -0.36877        0.84529
H          2.71418       -1.90009        2.37617
H          2.75386       -0.17610        2.00128
H          2.69546       -0.70674       -0.45219
H          2.65172       -2.41639       -0.09706
H          4.76178        0.58963       -0.16231
H          6.33861       -0.34821        0.07600
H          4.33966       -3.61823       -1.15831
H          4.50976       -4.71266        0.22318
H          5.93237       -4.23651       -0.73343
H          6.25462       -2.02182        2.33654
H          6.57380       -3.78238        1.85892
