16

O          0.90267        0.16017        0.09646
C          2.33599        0.11389       -0.10453
C          3.14850        1.14033        0.75661
C          4.10351        0.03771        1.26596
C          3.08151       -0.99229        0.75054
O          2.90444       -2.17130        0.97362
C          2.73672        0.03206       -1.53877
C          2.37698        0.98717       -2.40670
H          0.74240       -0.31708        0.92971
H          2.55338        1.59970        1.55668
H          3.64297        1.94890        0.20913
H          4.26140        0.02082        2.34609
H          5.06314       -0.01474        0.74364
H          3.30618       -0.82930       -1.88047
H          1.78021        1.84232       -2.09925
H          2.65147        0.91815       -3.45412
