16

C          0.98449       -0.07840        0.09359
C          2.49942       -0.05779        0.04742
C          3.24964       -1.03028       -0.94971
C          4.77432       -0.82985       -0.80488
C          4.78484        0.68837       -0.76321
O          5.74732        1.40544       -0.57472
C          3.21688        0.93344       -0.95068
O          2.79973       -0.05695       -2.01618
H          0.63444       -0.92248        0.69624
H          0.53572       -0.16904       -0.90046
H          0.60484        0.84071        0.55097
H          2.91820       -0.04602        1.06144
H          2.84713       -2.03446       -1.08970
H          5.31666       -1.19837       -1.67763
H          5.15057       -1.25018        0.12952
H          2.83045        1.93802       -1.10215
