20

C          0.95386       -0.09226       -0.03469
C          2.47632        0.03452        0.12258
C          2.88998        1.49170       -0.10903
C          3.00217       -0.47070        1.45220
C          2.33112       -0.38813        2.61587
C          4.31916       -1.20178        1.51231
C          5.41190       -0.86992        0.52704
O          4.53629       -2.02727        2.40358
H          0.65350        0.17260       -1.05489
H          0.41254        0.57408        0.64544
H          0.62245       -1.11935        0.15234
H          2.90304       -0.58247       -0.67775
H          2.44627        2.15659        0.64068
H          2.56005        1.83339       -1.09639
H          3.97607        1.61932       -0.06291
H          1.35791        0.08296        2.69240
H          2.73252       -0.80180        3.53864
H          5.04295       -0.40504       -0.38602
H          5.91070       -1.79931        0.23427
H          6.13515       -0.20170        1.00204
