18

C          3.68473        1.25403        1.12913
O          3.11372       -0.01476        1.41300
C          2.67652       -0.78345        0.38014
C          2.53856       -2.11699        0.44482
C          1.79243       -2.60217       -0.76118
C          1.48344       -1.31299       -1.47313
C          0.55321       -1.23532       -2.62621
C          2.04901       -0.28433       -0.82052
H          4.75134        1.20774        1.36452
H          3.22158        1.99623        1.79019
H          3.57045        1.59298        0.09764
H          2.82889       -2.73134        1.28115
H          0.87808       -3.11849       -0.47001
H          2.41435       -3.26645       -1.37254
H          0.23988       -2.23231       -2.94825
H          1.01307       -0.72731       -3.47819
H         -0.34676       -0.68576       -2.33037
H          1.94892        0.75336       -1.09681
