14

C         -1.59467        0.26452        0.44928
C         -1.21067       -1.01762        0.53623
C         -0.16658       -1.55075       -0.37024
N          1.07813       -1.21374       -0.47840
N          1.58503       -0.33732        0.48496
C          1.25971        0.91028        0.37434
C          0.28055        1.55024       -0.53531
C         -1.02346        1.24628       -0.44998
H         -2.42261        0.61007        1.06401
H         -1.69724       -1.72708        1.19237
H         -0.53445       -2.32887       -1.05967
H          1.75098        1.61692        1.06378
H          0.65561        2.32423       -1.19183
H         -1.73336        1.79249       -1.06739
