18

C          2.80999        1.45560        0.18262
C          2.55457       -0.03271       -0.01260
C          3.13679       -0.58407       -1.32378
C          2.82200       -2.07875       -1.49077
C          4.15562       -2.71974       -1.24009
O          4.35059       -3.91413       -1.08640
C          5.23863       -1.73052       -1.25254
C          4.64209       -0.53809       -1.34048
H          2.35873        1.79217        1.12132
H          2.37128        2.03777       -0.63351
H          3.87967        1.67960        0.23181
H          1.47101       -0.20272       -0.00116
H          2.96745       -0.57845        0.84545
H          2.72822       -0.02415       -2.17443
H          2.51639       -2.30495       -2.51829
H          2.07167       -2.44411       -0.78485
H          6.28547       -1.97116       -1.21116
H          5.19161        0.39491       -1.38606
