18

C          0.98600        0.31113       -2.10847
C          2.47871        0.31806       -2.16297
C          3.25213        0.25549       -1.06758
C          4.75907        0.27357       -1.08876
C          5.38809       -0.95564       -0.41141
O          5.85064       -0.56699        0.90406
C          5.86789        0.80934        0.84318
C          5.29832        1.35626       -0.22540
H          0.57606        0.23657       -3.12079
H          0.61206        1.23791       -1.66240
H          0.61445       -0.54382       -1.53494
H          2.93294        0.38052       -3.14959
H          2.77935        0.19468       -0.08612
H          5.13195        0.36094       -2.11587
H          6.26383       -1.30040       -0.97568
H          4.69786       -1.80107       -0.31118
H          6.31226        1.29815        1.69369
H          5.20170        2.41385       -0.41644
