14

O          1.06255       -0.44729       -0.12000
C          2.27956       -0.25374       -0.06212
C          3.24724       -1.36406        0.31490
O          4.46553       -1.48286       -0.39756
C          5.39870       -0.54202       -0.07831
C          5.23027        0.77744        0.06865
C          4.04037        1.54249       -0.19879
C          2.77146        1.12677       -0.27235
H          2.71311       -2.30531        0.13847
H          3.43345       -1.31635        1.39583
H          6.37673       -1.00609       -0.00482
H          6.11143        1.37118        0.30803
H          4.22571        2.60279       -0.37362
H          1.98483        1.83985       -0.49845
