19

N          1.11371        0.09041        0.41253
N          2.37370        0.28581        0.87252
C          3.14645       -0.73276        0.66720
N          4.46662       -0.83679        1.01700
C          5.35154       -1.83520        0.45281
C          6.58923       -1.73142        1.32701
C          6.65658       -0.25764        1.71163
C          5.23117        0.27991        1.55130
H          0.57454        0.95026        0.53592
H          0.63282       -0.61611        0.97284
H          2.77766       -1.64766        0.16732
H          5.58358       -1.57888       -0.58727
H          4.92125       -2.84085        0.48393
H          7.49185       -2.07396        0.81220
H          6.46229       -2.34389        2.22758
H          7.34508        0.28437        1.05454
H          7.02052       -0.13467        2.73797
H          5.22743        1.12301        0.84995
H          4.82602        0.62031        2.50986
