16

C          1.62143        1.15790       -0.12417
C          2.44615       -0.12364       -0.05348
C          2.97945       -0.43524        1.32168
C          1.96996       -0.74659        2.37434
O          0.76814       -0.82180        2.13568
C          4.29511       -0.49792        1.60279
C          4.80177       -0.86384        2.98836
C          5.23639       -1.17771        4.17690
H          1.31401        1.34624       -1.15830
H          2.19529        2.02275        0.22276
H          0.70865        1.09268        0.47660
H          3.27578       -0.03252       -0.76542
H          1.83683       -0.96616       -0.40260
H          2.34420       -0.91356        3.39362
H          5.05431       -0.30436        0.85137
H          5.59441       -1.43446        5.14723
