16

C         -0.35839        1.14914        0.09331
C         -1.42980        0.20665       -0.28892
C         -0.70992       -1.07113       -0.10752
C         -0.86390       -2.06361       -1.26792
C         -0.45009       -3.06546       -0.51967
O          0.67847       -2.51361        0.24265
C          0.80205       -1.14043        0.12193
C          0.86059        0.23005        0.00785
H         -0.47565        1.54010        1.11314
H         -0.37443        2.00225       -0.59297
H         -1.76901        0.30097       -1.31927
H         -2.29316        0.22150        0.38956
H         -1.06293       -1.40528        0.90121
H         -0.12910       -1.95660       -2.09348
H         -1.29329       -3.43235        0.08718
H          1.78288        0.80466       -0.04921
