18

O          1.34681        0.16008       -0.63511
C          2.46669       -0.00938       -0.16907
C          3.05119       -1.37557        0.10095
C          3.96404       -1.37294        1.32204
C          5.11928       -0.38835        1.15807
C          4.66924        0.99115        0.78564
C          3.52201        1.69240        1.46824
C          3.35629        1.15891        0.06259
H          3.59501       -1.69917       -0.79258
H          2.22469       -2.07399        0.27105
H          4.36447       -2.38043        1.48269
H          3.38209       -1.11748        2.21586
H          5.78958       -0.75493        0.37061
H          5.70662       -0.34719        2.08188
H          5.50550        1.61195        0.48078
H          3.57714        2.76940        1.58713
H          2.99502        1.19906        2.27677
H          3.33439        1.88872       -0.74077
