16

O          0.99071        0.31203        0.08229
C          2.39155        0.19891       -0.07116
C          2.97827        1.37441        0.61631
C          3.78946        1.31626        1.67344
C          4.23132        0.04258        2.31425
C          3.71152       -1.25581        1.70479
C          2.95081       -1.15744        0.39519
O          2.72131       -2.18419       -0.25392
H          0.59992        0.21289       -0.80221
H          2.63875        0.27251       -1.13638
H          2.68829        2.35311        0.22691
H          4.15112        2.24021        2.11854
H          3.94253        0.07096        3.37292
H          5.32819        0.02333        2.30867
H          3.05862       -1.76099        2.42567
H          4.56533       -1.91836        1.52989
