18

N          1.88685       -0.14373        1.14911
C          2.74836        0.06985       -0.01300
C          3.51509       -1.20685       -0.59319
C          4.14238       -0.62884       -1.84549
C          3.12322        0.07664       -2.38475
C          1.99765       -0.15960       -1.39599
C          2.12609       -1.73719       -1.16101
N          1.27052       -2.32527       -0.12701
H          1.09842       -0.76146        0.91437
H          1.42629        0.71618        1.44871
H          3.35535        0.97726        0.08529
H          4.13898       -1.83480        0.04057
H          5.15168       -0.75822       -2.20269
H          3.10092        0.67225       -3.27984
H          1.03801        0.31177       -1.59984
H          2.16191       -2.34966       -2.06991
H          1.79005       -2.47912        0.74548
H          0.95429       -3.26344       -0.37920
