18

C          1.85379        0.51190       -1.23273
C          2.14654       -0.20467       -0.13908
C          3.46155       -0.91048        0.09434
C          4.16606       -0.39010        1.36334
O          3.88690       -1.34282        2.40816
C          3.71057       -2.63246        1.78009
C          2.35209       -3.00466        1.28619
C          3.36069       -2.39431        0.34000
H          0.89287        1.01013       -1.32475
H          2.55891        0.62975       -2.04885
H          1.40160       -0.27550        0.65009
H          4.11886       -0.72593       -0.76520
H          3.84168        0.60819        1.67291
H          5.25256       -0.37671        1.21999
H          4.40863       -3.42357        2.02496
H          1.50698       -2.42147        1.62820
H          2.13182       -4.06129        1.17455
H          3.83140       -3.00906       -0.41513
