16

C          0.50875        1.25801        0.74858
C         -0.92132        0.80745        0.48705
C         -0.95717        0.18150       -0.87652
C         -0.91258       -0.68950        0.37987
C          0.51902       -1.21178        0.24680
O          0.83404       -1.52411       -1.19164
C          0.46105       -0.07896       -1.38723
C          1.29733        0.17078       -0.03305
H          0.74732        1.23411        1.81584
H          0.69495        2.25606        0.34142
H         -1.74149        1.36153        0.90026
H         -1.78057        0.08486       -1.55702
H         -1.70521       -1.38751        0.56679
H          0.94984       -1.90748        0.96589
H          0.83360        0.36379       -2.31019
H          2.38546        0.16330       -0.07684
