20

C          0.98964       -0.02067       -0.03164
C          2.51883       -0.06734       -0.15191
C          2.97262       -1.48310       -0.55996
C          4.48757       -1.66114       -0.58194
O          4.81398       -2.99429       -0.95506
C          3.03617        1.05104       -1.07831
C          2.56638        0.91485       -2.46563
C          2.16475        0.79508       -3.59050
H          0.63925       -0.72872        0.72650
H          0.49949       -0.27758       -0.97687
H          0.65258        0.97846        0.26535
H          2.92378        0.13440        0.84930
H          2.56075       -1.75862       -1.53953
H          2.54891       -2.21379        0.14184
H          4.92320       -1.46148        0.40243
H          4.96154       -0.99743       -1.30966
H          4.38932       -3.59301       -0.31775
H          4.13130        1.07679       -1.06309
H          2.71009        2.02207       -0.68476
H          1.79602        0.67852       -4.58370
