16

C          1.06145        0.05020       -0.05743
C          2.58796        0.06940       -0.04506
C          3.16884       -1.15952        0.67004
O          3.52960       -0.77278        2.01936
C          3.61653        0.60234        1.93833
C          3.13195        1.13835        0.82566
C          3.13616        2.56501        0.50380
O          2.69534        2.99381       -0.55453
H          0.69514       -0.78961       -0.65760
H          0.65890        0.97191       -0.49071
H          0.64629       -0.05480        0.95179
H          2.96549        0.12709       -1.07112
H          4.08543       -1.50089        0.17175
H          2.47298       -2.00411        0.71374
H          4.04773        1.07940        2.80285
H          3.57016        3.23101        1.26766
