20

C          0.94328        0.05859       -0.00018
C          2.42713       -0.06054       -0.03936
C          3.19218       -1.16296       -0.11037
C          2.78166       -2.59349       -0.17683
C          4.65193       -0.81809       -0.09837
O          5.19903       -1.11108        1.17679
C          4.65911        0.68691       -0.35814
C          3.26796        1.18038        0.03904
H          0.44090       -0.91036       -0.05453
H          0.59104        0.66210       -0.84286
H          0.62787        0.54559        0.92807
H          1.69615       -2.72002       -0.17702
H          3.17965       -3.14440        0.68117
H          3.16821       -3.05410       -1.09168
H          5.22229       -1.35239       -0.86396
H          4.56373       -0.79032        1.83964
H          4.81041        0.87515       -1.42910
H          5.44409        1.21545        0.19248
H          2.92258        1.95959       -0.64734
H          3.26285        1.57753        1.05995
