16

C          3.27947        0.41114        1.46497
C          2.59419        0.04380        0.17151
O          1.47947       -0.48473        0.18349
C          3.29332        0.36617       -1.13987
C          2.92014        1.75062       -1.60707
C          2.26964        2.01411       -2.74940
C          4.79792        0.21638       -1.05741
O          5.56581        1.08280       -0.64807
H          2.57152        0.31297        2.29324
H          3.62410        1.44734        1.43043
H          4.11971       -0.26489        1.64077
H          2.96016       -0.37771       -1.87525
H          3.21875        2.58609       -0.97386
H          1.94885        1.22823       -3.42655
H          2.03973        3.03755       -3.03292
H          5.18170       -0.78302       -1.32613
