22

C          1.78221        1.04752        0.21016
C          2.53003       -0.24295       -0.08084
C          2.82191       -1.01655        1.20864
C          1.62129       -1.59898        1.99891
C          1.80266       -2.90342        1.20491
C          3.28100       -2.49509        0.98896
O          4.19715       -3.03418        1.97264
C          5.56758       -2.71898        1.78729
H          1.65628        1.62768       -0.70908
H          2.31975        1.66457        0.93684
H          0.78500        0.84470        0.61379
H          3.47664       -0.00317       -0.57957
H          1.94317       -0.84739       -0.78142
H          3.50110       -0.43720        1.84694
H          0.65553       -1.10323        1.88274
H          1.82557       -1.71122        3.07071
H          1.63378       -3.82205        1.77287
H          1.21464       -2.94902        0.28063
H          3.63553       -2.72238       -0.02238
H          6.13130       -3.11743        2.63525
H          5.70942       -1.63642        1.74495
H          5.93675       -3.18173        0.86823
