20

C          1.34380        0.29651       -0.93460
C          2.40425       -0.02878        0.10686
C          2.98768        1.21664        0.71355
C          4.28835        1.53931        0.64115
C          4.89765        2.78861        1.21762
C          5.94300        2.53554        2.26205
C          7.25543        1.86441        1.94037
O          7.15255        3.28711        2.08229
H          0.93044       -0.62713       -1.35295
H          1.76365        0.88250       -1.75933
H          0.51793        0.86687       -0.49626
H          3.18603       -0.64045       -0.35890
H          1.95752       -0.63273        0.90474
H          2.29349        1.87300        1.23521
H          4.97173        0.88104        0.10806
H          4.11947        3.42293        1.66015
H          5.32398        3.36695        0.38845
H          5.54289        2.44553        3.26300
H          7.41171        1.46423        0.94684
H          7.76163        1.32255        2.72977
