18

C          1.03885        0.08547       -0.03687
C          2.50546        0.30205        0.08802
O          3.29612       -0.38798       -0.88582
C          3.32242        1.05220       -0.95296
C          2.68002        1.59439       -2.19582
C          4.66532        1.61746       -0.57019
C          4.71189        3.12061       -0.49388
O          3.74154        3.84107       -0.27071
H          0.69960       -0.63228        0.71645
H          0.75416       -0.30844       -1.01798
H          0.50475        1.02665        0.12590
H          2.84017        0.29871        1.11750
H          1.93218        0.91303       -2.61030
H          3.42982        1.76599       -2.97672
H          2.17846        2.54426       -1.98568
H          5.40480        1.30344       -1.31595
H          5.00132        1.23691        0.40145
H          5.71929        3.56022       -0.60484
