20

C          1.06118       -0.10593        0.12402
C          2.57155       -0.06105        0.05868
C          3.24265       -1.04797        0.89648
C          3.07705       -1.15352        2.22077
C          3.24146        0.80673       -0.74509
C          2.51835        1.79848       -1.63333
C          4.70784        0.86088       -0.79029
C          5.45680        1.67514       -1.54744
H          0.68798       -0.88163        0.80151
H          0.64324       -0.33075       -0.86376
H          0.65988        0.85056        0.47576
H          3.93020       -1.72385        0.39111
H          2.42431       -0.48641        2.77466
H          3.61546       -1.90868        2.78415
H          1.42927        1.73613       -1.56846
H          2.77687        1.62972       -2.68478
H          2.78778        2.82541       -1.36193
H          5.24970        0.18056       -0.13602
H          5.03827        2.40429       -2.23106
H          6.54000        1.62811       -1.49012
