17

N          1.16065        0.14541        0.49700
N          2.51475        0.00669        0.53504
C          3.16914        1.10361        0.30103
N          2.61934        2.34748        0.09334
C          3.65352        3.36294       -0.03443
C          5.00081        2.63041        0.10530
C          4.65506        1.18111        0.26401
C          5.48051        0.13682        0.36868
H          0.73943       -0.74779        0.23775
H          0.88725        0.82052       -0.22139
H          1.86900        2.53579        0.75347
H          3.54048        4.14005        0.72861
H          3.57492        3.83723       -1.01863
H          5.53784        2.99927        0.98562
H          5.62470        2.80015       -0.77950
H          6.55795        0.26383        0.34215
H          5.09211       -0.87009        0.49069
