16

N          3.02301        0.58643        0.68815
C          2.06134       -0.26633       -0.12688
C          2.89082       -1.41699       -0.66612
C          3.21619       -1.15085       -2.11445
N          2.39582        0.02315       -2.57192
C          2.28408        0.84326       -1.29804
C          3.76640        0.73703       -0.63412
C          4.15887       -0.67026       -1.04092
H          2.61290        1.45869        1.01995
H          1.05961       -0.42665        0.26863
H          2.93826       -2.34304       -0.12921
H          3.49427       -1.94006       -2.79436
H          1.49293       -0.30705       -2.91265
H          1.73704        1.78542       -1.28964
H          4.45701        1.57224       -0.73928
H          5.12536       -1.05396       -0.78354
