18

C          1.05556       -0.09319        0.00749
C          2.54498       -0.18841        0.07414
C          3.25363       -0.02782        1.20221
O          2.63631        0.23600        2.40433
C          3.71069        0.62405        3.25595
O          4.98561        0.34867        2.68391
C          4.73834       -0.07726        1.34349
C          5.50587        0.82955        0.39341
H          0.74361        0.12373       -1.01864
H          0.67186        0.71118        0.64282
H          0.59891       -1.04032        0.30904
H          3.05912       -0.39583       -0.86002
H          3.62810        0.09585        4.21143
H          3.63694        1.69937        3.44758
H          5.09672       -1.10819        1.25503
H          5.16477        1.86808        0.47275
H          5.39930        0.50766       -0.64742
H          6.57257        0.83017        0.64547
