18

C          1.16190        0.13744       -0.23529
C          2.39823       -0.12842        0.18813
O          2.76526       -1.33747        0.73564
C          4.03124       -1.10476        1.37933
C          4.70161        0.09075        0.71429
C          5.03699        1.34852        1.54364
C          3.60028        1.84559        1.30239
C          3.49814        0.84238        0.13005
H          0.38617       -0.61752       -0.16305
H          0.89590        1.10292       -0.64903
H          4.64279       -2.00906        1.28895
H          3.83932       -0.92937        2.44559
H          5.46070       -0.19410       -0.02203
H          5.80132        1.98188        1.07944
H          5.30837        1.17525        2.58833
H          3.51788        2.89946        1.02122
H          2.92394        1.65404        2.14344
H          3.68357        1.27812       -0.85831
