17

N          1.20882       -0.05212        0.15123
N          2.60219       -0.05916        0.31248
C          3.33354        1.08417        0.06009
C          3.09890        2.32918        0.48664
C          4.55342        0.68878       -0.74365
C          4.65348       -0.83406       -0.56729
C          3.26410       -1.20536       -0.09653
N          2.83422       -2.42541       -0.07535
H          0.79150        0.63381        0.77457
H          0.86265       -0.96876        0.44943
H          2.23708        2.55603        1.10845
H          3.77224        3.14571        0.25151
H          5.46526        1.18800       -0.41379
H          4.37775        0.92504       -1.80222
H          5.37797       -1.10349        0.20701
H          4.90469       -1.34421       -1.50110
H          3.55923       -3.05960       -0.42182
