16

C          0.88655        0.39811        0.04171
C          2.16721       -0.37690        0.15209
C          1.10703       -0.81554       -0.81151
O          0.30738       -1.95774       -0.46466
C          0.74017       -3.17061       -1.07930
C          1.46890       -2.95563       -2.36823
C          1.72331       -1.73533       -2.84619
O          1.36976       -0.57377       -2.20632
H          0.90740        1.36445       -0.44547
H          0.17669        0.32019        0.85625
H          2.32807       -0.97962        1.03668
H          3.06464        0.06957       -0.25688
H         -0.15222       -3.77557       -1.26786
H          1.37146       -3.71517       -0.37143
H          1.78765       -3.83380       -2.92163
H          2.22259       -1.53151       -3.78522
