16

C          0.98394       -0.10071       -0.06344
C          2.31593       -0.04395       -0.06344
O          3.11359       -1.20241       -0.06344
C          4.45765       -0.64603       -0.06344
C          5.50961       -1.39797        0.68941
C          5.50961       -1.39797       -0.81628
C          4.40986        0.80205       -0.06344
C          3.12167        1.16271       -0.06344
H          0.47745       -1.05968       -0.06344
H          0.37481        0.79553       -0.06344
H          5.21123       -2.30735        1.19771
H          6.28587       -0.83959        1.19788
H          5.21123       -2.30735       -1.32458
H          6.28587       -0.83959       -1.32476
H          5.26207        1.46405       -0.06344
H          2.73348        2.16819       -0.06344
