14

O          1.81053       -0.38595        1.25220
C          2.70154       -0.17456        0.12655
C          3.05724       -1.43668       -0.83521
C          3.81439       -0.85544       -1.98884
C          3.19893        0.30955       -2.25758
C          2.08265        0.39497       -1.26414
C          1.48876       -1.14872       -1.28763
O          0.44036       -1.72826       -1.38463
H          1.02850       -0.88067        0.94075
H          3.58116        0.37984        0.47797
H          3.35273       -2.38366       -0.39874
H          4.64249       -1.30633       -2.51487
H          3.41998        1.01664       -3.04320
H          1.41037        1.24603       -1.25156
