18

C          1.06123       -0.08346       -0.01395
C          2.58197       -0.09195        0.00524
C          3.12064       -0.37793        1.40729
C          4.62146       -0.37769        1.42698
C          5.35956       -1.43265        1.78886
O          6.75387       -1.37283        1.79582
C          7.39641       -2.51270        2.18997
O          6.90608       -3.57664        2.53663
H          0.69586        0.12418       -1.02453
H          0.66483        0.68667        0.65553
H          0.65951       -1.05215        0.30012
H          2.94940        0.87897       -0.34892
H          2.94536       -0.84998       -0.69930
H          2.72902       -1.33864        1.76360
H          2.76463        0.38954        2.10497
H          5.12039        0.54443        1.13838
H          4.93751       -2.38226        2.09476
H          8.48096       -2.32318        2.14802
