20

C          1.88438       -1.13190        0.33464
C          2.63920        0.14222       -0.00723
C          3.11412        0.10099       -1.45066
O          3.82664        1.32689       -1.80081
C          4.81331        0.53567       -2.51418
C          4.37497       -0.73668       -1.77301
O          4.16765       -1.93956       -2.55026
C          5.33635       -2.51316       -3.11909
H          1.55648       -1.11322        1.37840
H          2.51112       -2.01701        0.18626
H          0.99777       -1.24002       -0.29940
H          3.48506        0.26719        0.67837
H          1.97344        1.00029        0.14073
H          2.28344       -0.05180       -2.15348
H          5.83445        0.86752       -2.30690
H          4.62785        0.54945       -3.59318
H          4.99170       -0.94628       -0.88966
H          5.07698       -3.48792       -3.54015
H          6.10846       -2.64841       -2.35596
H          5.71199       -1.87017       -3.91980
