22

O          1.02971        0.04242       -0.09579
C          2.45018        0.07786       -0.09416
C          2.97533       -1.19420       -0.74504
C          4.50124       -1.22086       -0.77853
C          5.02590       -2.52056       -1.39049
C          6.52694       -2.54007       -1.42963
C          7.23688       -3.69848       -2.08053
C          7.26338       -2.34334       -2.73018
H          0.72358        0.86394        0.32490
H          2.79466        0.15696        0.94204
H          2.77748        0.96392       -0.64703
H          2.57165       -1.27657       -1.76188
H          2.59129       -2.06504       -0.19876
H          4.89229       -1.11378        0.24114
H          4.87603       -0.36389       -1.35131
H          4.61269       -2.64843       -2.39882
H          4.67959       -3.37078       -0.79136
H          6.97387       -2.15218       -0.52078
H          6.64277       -4.47563       -2.54654
H          8.14849       -4.05719       -1.61520
H          6.69352       -2.21299       -3.64322
H          8.19449       -1.78889       -2.70852
