18

C          1.15928       -0.32298        0.52662
C          2.52724        0.17100        0.13162
C          3.06731        1.22957        0.76223
C          3.19693       -0.60623       -0.99238
C          2.83835       -0.05730       -2.34947
C          2.21064       -0.75133       -3.31030
C          4.72522       -0.68316       -0.89194
O          5.50393        0.25846       -1.01902
H          0.77096        0.19811        1.40851
H          1.19318       -1.39039        0.76813
H          0.44795       -0.17199       -0.29159
H          2.53996        1.74968        1.55707
H          4.04190        1.63023        0.49600
H          2.86811       -1.65266       -0.92188
H          3.13923        0.97034       -2.55307
H          1.89555       -1.78004       -3.16572
H          1.99971       -0.29480       -4.27331
H          5.11883       -1.69907       -0.70281
