19

N          1.05250       -0.36033        0.60856
C          2.31986        0.07535        0.02407
C          2.93687       -0.93245       -0.96781
C          2.01916       -1.18480       -2.16696
N          1.85981       -2.59191       -2.47277
C          1.95641       -3.49645       -1.45849
N          2.62503       -3.38410       -0.37369
C          3.46761       -2.19047       -0.27362
H          0.80738        0.25272        1.38771
H          1.16323       -1.29753        1.00576
H          3.03303        0.27234        0.83517
H          2.14966        1.02849       -0.48099
H          3.82430       -0.41327       -1.35512
H          2.43530       -0.69154       -3.05284
H          1.02579       -0.74493       -2.02106
H          1.10665       -2.77582       -3.12984
H          1.37233       -4.41326       -1.64780
H          4.45511       -2.43869       -0.68158
H          3.63601       -1.99420        0.79368
