15

N          1.47412       -0.15324       -0.93360
C          2.32051        0.27532       -0.06770
N          2.82954        1.52898        0.05101
C          3.59358        1.97737        1.08840
N          3.96200        1.29178        2.11958
C          3.60582       -0.10646        2.11533
C          4.28310       -0.97585        1.08827
C          2.81122       -0.67441        0.95524
H          1.18214        0.59927       -1.55938
H          2.57674        2.20007       -0.65680
H          3.86672        3.04206        1.00401
H          3.48902       -0.55075        3.09867
H          4.57699       -1.97097        1.40153
H          4.98792       -0.50902        0.41074
H          2.13693       -1.49720        1.17064
