15

C          2.22360        0.00181        0.00789
C          1.30019        1.23966        0.00145
N         -0.01572        0.66192        0.00617
C         -1.28388        1.08644        0.01081
N         -2.06777        0.02269        0.00822
N         -1.26303       -1.11668        0.00027
C         -0.02859       -0.69056       -0.00101
C          1.32167       -1.26312       -0.01175
H          2.86279        0.00376        0.89852
H          2.89347        0.01334       -0.85966
H          1.41851        1.84122       -0.90364
H          1.42147        1.85296        0.89819
H         -1.60412        2.11794        0.01537
H          1.50052       -1.85583       -0.91357
H          1.50398       -1.88648        0.86836
