18

N          1.06298       -0.08720       -0.00213
C          2.51639       -0.08778       -0.01197
C          3.02305        1.32798        0.21014
C          3.45766        2.54241        0.40068
C          3.96432        3.95816        0.62280
C          5.29671        4.11536        0.70386
C          2.93603        5.06188        0.71351
N          3.48627        6.39621        0.95206
H          0.72897       -1.02011       -0.23403
H          0.73067        0.52854       -0.74255
H          2.88949       -0.46000       -0.97150
H          2.89591       -0.73741        0.78271
H          5.97246        3.27041        0.62126
H          5.74616        5.09250        0.83717
H          2.22947        4.82931        1.51875
H          2.36762        5.08903       -0.22361
H          3.90150        6.41116        1.88237
H          2.71881        7.06507        0.97795
