18

N          1.01718        0.87294       -0.09858
N          2.35018        1.08313       -0.04847
C          3.01755        0.48786       -0.98356
C          4.52028        0.56220       -1.01104
C          5.02266        1.23362       -2.28582
C          6.55092        1.25627       -2.32225
C          7.05757        1.92463       -3.58993
C          7.49218        2.49794       -4.67734
H          0.53770        1.51931        0.52930
H          0.61539        1.00393       -1.02753
H          2.53102       -0.11248       -1.77465
H          4.89353       -0.46602       -0.95914
H          4.87629        1.10042       -0.12821
H          4.62802        2.25694       -2.34658
H          4.63390        0.70470       -3.16606
H          6.94796        0.23556       -2.28136
H          6.94418        1.80226       -1.45712
H          7.84869        2.96762       -5.56508
