16

C          1.17634        0.08678        0.03040
C          2.67539        0.14895        0.05924
C          3.53518       -0.62698       -1.03199
C          4.61866       -0.26240        0.06245
C          3.49945       -0.77968        1.05445
C          4.54552        1.33037        0.17782
O          5.38232        2.20749        0.25651
O          3.18261        1.52435        0.16830
H          0.82359       -0.94715       -0.04082
H          0.77790        0.63576       -0.82872
H          0.74863        0.52382        0.93835
H          3.64639       -0.12483       -1.99679
H          3.31667       -1.68819       -1.18972
H          5.58871       -0.75025        0.04342
H          3.57613       -0.42390        2.08539
H          3.27827       -1.85201        1.04814
