20

C          0.93371        0.05736        0.25440
C          2.46350        0.00628        0.13500
C          2.97199        1.26907       -0.57930
O          3.95614        1.15217       -1.59980
C          4.25111       -0.07488       -2.09038
C          3.81930       -1.24737       -1.62391
C          4.24423       -2.54840       -2.23997
C          2.90515       -1.33814       -0.44900
H          0.60830        0.98085        0.74460
H          0.55807       -0.78529        0.84417
H          0.46301        0.01438       -0.73473
H          2.84234        0.04893        1.16632
H          3.40580        1.93435        0.17876
H          2.13824        1.83534       -1.01184
H          4.92931        0.01753       -2.93174
H          4.89570       -2.40002       -3.10799
H          3.37041       -3.11751       -2.57340
H          4.79357       -3.15111       -1.50926
H          3.41785       -1.90362        0.34099
H          2.03253       -1.94117       -0.73013
