18

O          0.99559        0.10135       -0.03252
C          2.41544        0.08165       -0.03813
C          2.96857        1.19965        0.83436
C          4.37297        0.71988        1.14894
C          4.20211       -0.77469        1.40558
C          2.96592       -1.20452        0.60030
C          3.32837       -2.23348       -0.45813
C          3.63928       -3.11611       -1.36606
H          0.71554        0.92950       -0.45865
H          2.75964        0.19679       -1.07364
H          2.37488        1.31277        1.74973
H          2.96069        2.16508        0.31909
H          4.80888        1.23998        2.00684
H          5.02934        0.87843        0.28466
H          4.00777       -0.93682        2.47321
H          5.11344       -1.32771        1.15431
H          2.22414       -1.66141        1.26741
H          3.88850       -3.84022       -2.10706
