14

O          3.57494        0.69778       -0.63872
C          2.52291        0.05260        0.06235
C          3.07242       -0.88815        1.08458
C          4.37656       -1.10374        1.31884
C          4.83700       -2.05968        2.35758
O          4.06004       -2.70110        3.05456
C          6.26251       -2.23359        2.54655
C          7.44834       -2.36747        2.69203
H          3.15678        1.29179       -1.28418
H          1.90796       -0.49626       -0.65726
H          1.90796        0.81521        0.54968
H          2.33024       -1.42799        1.67117
H          5.14829       -0.58788        0.75830
H          8.49896       -2.48610        2.82094
