22

C          2.87176        1.25714       -0.83358
C          2.45069        0.11217        0.09049
C          0.92508        0.03582        0.15987
C          3.02802       -1.24150       -0.36068
C          4.52467       -1.23428       -0.37617
O          5.13036       -2.43275       -0.88708
C          5.27175       -1.25101       -1.68537
C          6.64746       -0.70248       -1.77546
H          2.44125        2.20540       -0.49385
H          2.53903        1.08160       -1.86171
H          3.95916        1.38230       -0.84413
H          2.82669        0.33635        1.09724
H          0.49418       -0.18617       -0.82246
H          0.50349        0.98408        0.50834
H          0.60650       -0.74875        0.85475
H          2.63289       -1.50644       -1.34956
H          2.69417       -2.02444        0.33141
H          4.97346       -0.80101        0.50782
H          4.73210       -1.21409       -2.62175
H          7.16678       -0.72469       -0.81099
H          6.60911        0.33761       -2.11547
H          7.23930       -1.27513       -2.49761
