18

O          1.07650        0.22489        0.17216
C          2.49723        0.12452        0.09121
C          3.00308        0.73722       -1.22193
C          2.47563        0.00412       -2.44453
C          2.02319       -0.62473       -3.49328
C          3.05721        0.86821        1.27602
C          2.79144        0.37484        2.67795
C          4.17817        0.29088        2.10547
H          0.71502       -0.29584       -0.56654
H          2.75979       -0.93891        0.14428
H          4.09877        0.73136       -1.24952
H          2.67488        1.78132       -1.29943
H          1.65661       -1.13445       -4.35487
H          3.01540        1.94406        1.13974
H          2.22334       -0.54055        2.79903
H          2.59298        1.11982        3.44018
H          4.56016       -0.69432        1.86786
H          4.92583        0.97412        2.49468
