20

C          2.74477        0.48011       -1.38903
C          2.51317       -0.09580       -0.01885
C          1.64967       -1.10833        0.17873
C          3.26612        0.50271        1.10031
C          2.53857        1.04359        2.09719
C          4.74074        0.56488        1.14531
C          5.43649        1.71862        1.82506
C          5.49990       -0.40333        0.60138
H          2.10787        0.00030       -2.14155
H          3.78201        0.34553       -1.71055
H          2.51044        1.54968       -1.39990
H          1.08677       -1.54194       -0.64153
H          1.48229       -1.52973        1.16562
H          1.45169        1.04124        2.07288
H          2.98522        1.49718        2.97474
H          4.76063        2.53047        2.10748
H          6.18547        2.16000        1.15755
H          5.94458        1.37185        2.73235
H          5.06828       -1.27079        0.11302
H          6.58434       -0.35982        0.64570
