18

C          1.47604       -0.03868       -0.44808
C          2.86204        0.16777        0.08424
C          3.62968       -1.03884        0.56781
C          4.05855       -0.31849       -0.68089
C          5.10432        0.74906       -0.61604
O          4.51750        1.91673       -0.00180
C          3.27923        1.51354        0.50631
C          2.61752        2.34966        1.31451
H          1.35385       -1.03555       -0.88586
H          1.23601        0.69851       -1.22123
H          0.74022        0.06033        0.35804
H          3.18873       -2.02238        0.44738
H          4.23201       -0.94067        1.46435
H          3.92771       -0.76769       -1.65296
H          5.47106        1.02406       -1.60950
H          5.95392        0.43378       -0.00109
H          3.02741        3.32428        1.55381
H          1.66057        2.07890        1.74350
