23

N          1.04096        0.04067       -0.05587
C          2.49999        0.03327       -0.04985
C          3.04025       -0.67435       -1.29215
C          4.57073       -0.67746       -1.29149
N          5.06869       -1.35010       -2.49349
C          6.53921       -1.38797       -2.49815
C          7.08320       -2.08616       -3.75957
N          6.59649       -1.46758       -4.99835
H          0.69988        0.45923        0.80865
H          0.69336       -0.91802       -0.06544
H          2.85532       -0.46835        0.85713
H          2.85878        1.06775       -0.02064
H          2.66862       -0.17166       -2.19448
H          2.66923       -1.70737       -1.32145
H          4.92985       -1.19760       -0.39534
H          4.94044        0.35451       -1.25609
H          4.77321       -0.81709       -3.31274
H          6.90378       -1.92956       -1.61746
H          6.93857       -0.36683       -2.45520
H          6.79156       -3.14322       -3.75336
H          8.17723       -2.04742       -3.74718
H          5.59052       -1.63267       -5.05596
H          6.99829       -1.96672       -5.79108
