18

C          1.01479        0.07261        0.03533
C          2.54516        0.12839        0.04100
C          3.00407        1.58840        0.07097
C          3.13211       -0.62854        1.24094
C          2.82190       -2.10847        1.20845
O          2.70286       -2.78363        0.19344
C          2.69460       -2.81357        2.53901
O          2.89947       -2.23616        3.59331
H          0.60983        0.62796       -0.81746
H          0.59845        0.50886        0.94969
H          0.65210       -0.95694       -0.04311
H          2.90779       -0.32552       -0.89016
H          2.66761        2.09077        0.98480
H          2.60261        2.14187       -0.78469
H          4.09612        1.65523        0.03054
H          2.74218       -0.19207        2.16686
H          4.22396       -0.53067        1.25661
H          2.40009       -3.87230        2.46154
