15

N          1.10466        0.04049       -0.38624
C          2.46625        0.00602       -0.04135
C          3.20347        1.18835       -0.00624
C          4.58023        1.13947        0.19040
C          5.18056       -0.10210        0.31577
N          4.51210       -1.27404        0.25448
C          3.18172       -1.20423        0.06269
N          2.51037       -2.43538       -0.00015
H          0.59494        0.84258       -0.03625
H          0.64094       -0.85188       -0.24465
H          2.71466        2.14659       -0.15216
H          5.17222        2.04697        0.22393
H          6.25318       -0.19038        0.46415
H          3.23161       -3.14269        0.12294
H          1.82229       -2.48588        0.74021
