22

C          1.10792        0.04555        0.18171
O          2.50733       -0.00040       -0.05826
C          2.91407       -0.64276       -1.26985
C          2.34111        0.07017       -2.50286
C          4.44934       -0.62807       -1.29738
C          4.82338       -1.76919       -2.22862
C          3.77888       -2.84394       -1.95805
C          2.60329       -2.14854       -1.26599
H          0.95266        0.41877        1.19767
H          0.65194       -0.94505        0.10807
H          0.62023        0.74070       -0.50715
H          2.55359        1.14428       -2.45783
H          1.25219       -0.03546       -2.55299
H          2.74570       -0.32299       -3.44035
H          4.85330       -0.81329       -0.29370
H          4.85839        0.33106       -1.63216
H          5.84138       -2.12974       -2.05176
H          4.76815       -1.44605       -3.27412
H          4.18805       -3.62060       -1.30151
H          3.46829       -3.33409       -2.88677
H          2.51046       -2.52648       -0.23995
H          1.65834       -2.37748       -1.77096
