20

C          3.55568        0.61755       -0.88303
C          2.59778       -0.02132        0.11175
C          3.01908       -1.39998        0.50331
C          2.33929       -2.53267        0.33625
C          3.10319       -3.64535        0.94317
C          4.44328       -2.96657        1.24149
C          5.53741       -3.35344        0.25113
O          4.23766       -1.53623        1.16442
H          3.21088        1.62353       -1.14396
H          3.61878        0.03133       -1.80590
H          4.56418        0.70723       -0.46544
H          1.59309       -0.04257       -0.32729
H          2.53701        0.60289        1.01057
H          1.36733       -2.62567       -0.12326
H          3.20180       -4.50815        0.27862
H          2.61262       -3.97125        1.86689
H          4.77763       -3.20964        2.25679
H          5.27883       -3.04738       -0.76859
H          5.71506       -4.43307        0.25968
H          6.47348       -2.84360        0.50314
