19

C         -1.51852        0.13150        0.88679
C         -1.08235        1.35958        0.06161
C          0.12321        0.91547       -0.79514
C          1.46222        0.93773       -0.02758
N          1.50880       -0.29385        0.79784
C          0.58732       -1.25124        0.14257
C         -0.91468       -1.04967        0.18132
C         -0.11955       -0.55397       -0.96931
H         -2.61063        0.06008        0.91346
H         -1.15901        0.19511        1.91908
H         -0.86068        2.22333        0.69635
H         -1.90588        1.64336       -0.60489
H          0.18406        1.47028       -1.73553
H          1.59104        1.84017        0.57768
H          2.29130        0.88922       -0.74389
H          1.16628       -0.07705        1.73407
H          0.96859       -2.25318       -0.02528
H         -1.56575       -1.90252        0.06522
H         -0.17287       -0.96972       -1.95587
