18

C          0.46863        0.84992       -0.18842
O          0.99395       -0.47389        0.09177
C         -0.35318       -1.01462        0.09989
C         -0.94619        0.39450        0.16515
C         -2.05506        0.65395       -0.84883
C         -2.00626        2.04455       -1.49322
O         -2.15806        1.46301       -2.81386
C         -1.85081        0.14841       -2.27815
H          0.67948        1.13286       -1.22305
H          0.88511        1.60165        0.48886
H         -0.53399       -1.63609        0.98195
H         -0.52921       -1.61346       -0.79861
H         -1.23174        0.68783        1.18415
H         -3.04857        0.40594       -0.45907
H         -1.07474        2.61653       -1.43230
H         -2.84335        2.70126       -1.24432
H         -0.84997       -0.16575       -2.57787
H         -2.58262       -0.60148       -2.59801
