20

C          0.97209        0.09844       -0.05469
C          2.49282        0.08848        0.03155
C          3.02018        1.21070        0.92907
C          4.44217        0.79256        1.27217
C          4.31537       -0.70553        1.32836
O          5.15728       -1.43738        1.83562
C          3.04509       -1.20038        0.66666
C          3.33847       -2.28183       -0.35926
H          0.61827        1.03391       -0.50022
H          0.51341        0.00353        0.93615
H          0.61100       -0.72921       -0.67329
H          2.90610        0.21911       -0.97780
H          2.42378        1.28876        1.84667
H          2.99419        2.18433        0.42935
H          4.76866        1.20192        2.23005
H          5.14272        1.05740        0.47492
H          2.37727       -1.57268        1.45199
H          4.09045       -1.94909       -1.08421
H          2.43438       -2.56305       -0.90739
H          3.73589       -3.17890        0.12750
