20

C          1.02275       -0.06126        0.05689
C          2.54465       -0.05351       -0.02296
C          3.08691       -1.26611       -0.73174
C          4.11118       -0.95427       -1.53382
C          4.41920        0.51300       -1.50237
C          3.14512        1.10567       -0.86490
C          3.43631        2.34860       -0.03404
O          2.24998        1.50430       -1.91481
H          0.67741       -0.88080        0.69720
H          0.55636       -0.20018       -0.92463
H          0.65111        0.87582        0.48359
H          2.95791       -0.04813        0.99401
H          2.72823       -2.27256       -0.55909
H          4.68734       -1.67081       -2.10395
H          4.58340        0.89329       -2.51556
H          5.31566        0.68251       -0.89655
H          4.13658        2.13642        0.78031
H          2.51472        2.75264        0.39911
H          3.86334        3.14118       -0.65879
H          2.09453        0.71850       -2.46901
