18

N          0.84396       -0.07392        0.21136
C          2.31390        0.01376        0.10625
C          2.93934       -0.90734       -0.99188
C          2.43267       -0.44885       -2.34963
C          1.99805       -0.05555       -3.51430
N          4.41165       -0.84520       -0.96229
C          5.02131       -1.48899        0.20131
C          5.05208       -2.14926       -1.14765
H          0.52982        0.51331        0.98294
H          0.57023       -1.02810        0.43397
H          2.72266       -0.24303        1.08855
H          2.57669        1.06070       -0.08753
H          2.56712       -1.92868       -0.82758
H          1.64287        0.27277       -4.46304
H          4.38306       -1.91253        0.96761
H          5.93186       -1.02725        0.56528
H          4.43724       -3.02840       -1.29978
H          5.98702       -2.14364       -1.69475
