18

C          0.93607        0.39333        0.37740
C          2.45238        0.28827        0.63491
C          2.51685       -0.70454       -0.56853
C          1.24223        0.03502       -1.09002
C          2.31621       -2.18779       -0.21576
C          3.39599       -2.81700       -1.00852
C          4.09169       -1.87183       -1.62760
O          3.69527       -0.57189       -1.42278
H          0.48427        1.37244        0.55027
H          0.34623       -0.36722        0.90291
H          2.73829       -0.10525        1.61368
H          2.99434        1.22700        0.46499
H          0.48958       -0.57625       -1.59462
H          1.46211        0.90623       -1.71986
H          1.33513       -2.56199       -0.52315
H          2.45972       -2.38385        0.85201
H          3.58668       -3.87847       -1.06608
H          4.94509       -1.98768       -2.27783
