20

C          0.79823       -1.14887       -0.02694
C          2.29164       -1.16537       -0.04073
C          3.04553       -0.72939        0.98021
C          4.54927       -0.73829        0.96240
C          5.17005       -1.57736        2.08287
C          4.73691       -3.01127        2.05881
C          5.05133       -3.93190        0.90777
O          5.81696       -3.95315        2.11942
H          0.41530       -1.47000       -1.00110
H          0.41712       -0.14159        0.16475
H          0.40951       -1.83711        0.72910
H          2.76560       -1.55219       -0.93993
H          2.56701       -0.33673        1.87529
H          4.89732        0.29694        1.06497
H          4.91822       -1.09419       -0.00651
H          4.90572       -1.14815        3.05699
H          6.26242       -1.50934        2.00229
H          3.85564       -3.20756        2.65554
H          5.51857       -3.52585        0.02028
H          4.38291       -4.76456        0.72582
