19

C          1.08336       -0.02573       -0.06777
N          2.53945       -0.00678       -0.09476
C          3.17484       -1.21956       -0.57933
N          3.15885        1.09075        0.38918
C          4.45171        1.12693        0.40593
C          5.16188        2.30770        0.94707
C          6.49991        2.31986        1.00584
N          7.27888        3.29828        1.55242
H          0.65040       -0.95145       -0.46485
H          0.68745        0.79783       -0.66861
H          0.71637        0.08895        0.95807
H          2.45862       -1.98173       -0.90745
H          3.78952       -1.67953        0.20170
H          3.80859       -0.99700       -1.44406
H          5.09314        0.30283        0.04919
H          4.54781        3.11581        1.31950
H          7.08405        1.48095        0.62863
H          6.83952        4.20556        1.68017
H          8.24454        3.33867        1.23324
