18

C          2.02047        0.09107        0.84659
N          2.23133        0.00023       -0.59639
C          0.85332        0.07288       -0.11820
C          0.03677        1.31658       -0.27679
C         -1.27512        0.88768        0.31013
C         -2.24360        0.03899       -0.45477
N         -1.32517       -0.59244        0.48887
C         -0.07966       -1.11431       -0.12015
H          2.29378        1.02863        1.31476
H          2.22743       -0.79366        1.43587
H          2.48895       -0.95309       -0.85697
H         -0.07954        1.57948       -1.33441
H          0.45192        2.17801        0.25520
H         -1.60342        1.46740        1.16059
H         -2.09215       -0.12304       -1.51287
H         -3.28330        0.05863       -0.14606
H         -0.24552       -1.48319       -1.14089
H          0.30635       -1.94342        0.48012
