19

N          1.74395       -0.31978        1.03747
C          2.47781        0.05003       -0.17019
C          2.96034       -1.15682       -0.94962
C          1.95519       -2.05011       -1.50717
C          1.00330       -1.68299       -2.37386
C          4.28233       -1.36545       -1.12302
C          4.89683       -2.42517       -1.89109
C          6.22434       -2.56083       -2.00258
H          1.52398        0.52418        1.56181
H          2.35308       -0.87842        1.63277
H          3.32521        0.67910        0.12988
H          1.84190        0.67820       -0.80361
H          2.01971       -3.09226       -1.19985
H          0.90860       -0.66297       -2.72977
H          0.29767       -2.41423       -2.75481
H          4.97893       -0.66201       -0.66641
H          4.25317       -3.12568       -2.41767
H          6.91777       -1.88998       -1.50759
H          6.64694       -3.35948       -2.60456
