14

C          1.25353       -1.23450        0.01302
O          2.15375       -0.06049        0.00346
C          1.35428        1.18487        0.00315
C         -0.03832        0.75272        0.00198
C         -0.05243       -0.59794        0.00769
O         -1.28214       -1.12215        0.00695
C         -2.10543       -0.02022        0.00032
C         -1.37170        1.16114       -0.00292
H          1.45587       -1.81000        0.91878
H          1.45643       -1.82572       -0.88240
H          1.62381        1.75237       -0.89157
H          1.62194        1.75097        0.89937
H         -3.16422       -0.24050       -0.00140
H         -1.77765        2.16246       -0.00831
