18

C          1.58230       -0.97165       -0.03719
C          2.44865        0.04994       -0.01045
C          3.15222        0.59611       -1.21068
O          4.55600        0.50920       -0.97285
C          5.29441        0.99331       -2.09603
C          6.77612        0.86074       -1.79951
C          7.61467        1.35873       -2.94438
O          7.16145        1.81785       -3.98771
H          1.10194       -1.31613        0.87331
H          1.33972       -1.49011       -0.95964
H          2.66655        0.53647        0.93712
H          2.86776        1.64492       -1.35090
H          2.89360        0.03206       -2.11421
H          5.03383        2.04274       -2.27767
H          5.03245        0.40840       -2.98567
H          7.03699       -0.18571       -1.60740
H          7.04133        1.42899       -0.90085
H          8.70538        1.28846       -2.79200
