13

N          1.05770        0.03868        0.07194
C          2.31866        0.03868        0.07194
C          3.83866        0.03868        0.07194
C          4.51310       -0.24226       -1.05193
C          3.88143       -0.55759       -2.38484
C          5.15163       -0.53008       -3.18998
N          6.25254       -0.35379       -2.52946
N          5.86931       -0.24990       -1.23587
H          4.32479        0.28033        1.00803
H          3.19394        0.20993       -2.74541
H          3.44120       -1.55680       -2.43239
H          5.11617       -0.65629       -4.28181
H          6.50849        0.09589       -0.52383
