15

N          0.90825        0.11214        0.00811
C          2.37298        0.07129        0.06316
C          2.96246        1.15896       -0.77441
N          3.71325        0.73124       -1.73686
N          3.70759       -0.69699       -1.69971
C          2.95332       -1.08373       -0.71476
C          2.68237       -2.48244       -0.31239
C          3.22680       -3.50365       -0.98375
H          0.56655        0.94184        0.49052
H          0.51620       -0.68813        0.49992
H          2.75824        0.11159        1.08440
H          2.78284        2.21946       -0.55465
H          2.03481       -2.64907        0.53861
H          3.87671       -3.34229       -1.84048
H          3.03068       -4.53022       -0.69342
