14

O          1.34737       -0.11993        1.06743
C          2.39260       -0.16675        0.43336
C          3.01249        0.98543       -0.29548
O          3.94105        0.35616       -1.19229
C          3.95848       -1.06314       -0.95145
C          3.29997       -1.33665        0.38542
C          3.26015       -1.77847       -2.03561
C          2.67605       -2.42865       -2.85543
H          3.57336        1.60780        0.40773
H          2.28029        1.57030       -0.85609
H          5.00672       -1.38270       -0.93815
H          2.76613       -2.29027        0.44313
H          4.01377       -1.24308        1.21214
H          2.14656       -3.03695       -3.55377
