20

C          3.76378       -0.80189        0.61936
C          2.58842       -0.03351        0.02904
C          3.01763        1.04999       -0.92808
C          2.72732        2.34821       -0.73193
C          3.18398        3.43605       -1.65961
O          4.26760        3.00798       -2.48882
C          3.96047        1.78547       -3.15882
C          3.79589        0.64034       -2.15588
H          3.40781       -1.52392        1.36121
H          4.47181       -0.12815        1.11345
H          4.30395       -1.36116       -0.15184
H          2.00750        0.39592        0.85492
H          1.92074       -0.73043       -0.49070
H          2.14734        2.66148        0.13178
H          3.53878        4.29182       -1.07732
H          2.35340        3.77660       -2.28809
H          4.78723        1.55919       -3.84053
H          3.05936        1.91923       -3.76919
H          4.78963        0.30611       -1.83695
H          3.30673       -0.20296       -2.65613
