16

C          2.00135        0.01594        0.91197
C          2.18083       -0.07036       -0.57990
C          0.81126       -0.02089        0.00407
O          0.04436        1.19756       -0.08849
C         -1.25402        0.78218        0.39546
C         -2.12523       -0.01545       -0.53103
C         -1.27214       -0.72621        0.47949
O          0.01581       -1.22297        0.04585
H          2.22219        0.95430        1.40419
H          2.20066       -0.86621        1.50682
H          2.52385       -1.01016       -0.99309
H          2.54452        0.80877       -1.09659
H         -1.71453        1.34751        1.19448
H         -1.84176       -0.07747       -1.57647
H         -3.19411        0.00600       -0.35878
H         -1.74492       -1.18831        1.33575
