22

C          1.01570       -0.03756        0.07352
C          2.53508       -0.05897        0.11914
C          3.12326        1.06312        0.97283
C          4.54856        0.58843        1.26468
C          5.51864        0.94584        0.13894
C          4.36555       -0.92023        1.50108
O          5.49000       -1.69413        1.12262
C          3.10254       -1.34109        0.73705
H          0.65695        0.89101       -0.38233
H          0.58313       -0.10939        1.07709
H          0.63538       -0.87589       -0.51903
H          2.91260        0.03352       -0.90723
H          2.56718        1.16386        1.91352
H          3.09240        2.03021        0.46054
H          4.91936        1.06582        2.17980
H          5.24079        0.47793       -0.81061
H          6.53580        0.62643        0.38824
H          5.54334        2.02985       -0.01518
H          4.20156       -1.09667        2.57101
H          5.55624       -1.68120        0.15275
H          2.38774       -1.78324        1.44175
H          3.30274       -2.09425       -0.03290
