20

C          0.99983        0.20427        0.09284
C          2.51072        0.10792       -0.11043
C          2.98793       -1.30600       -0.43604
C          2.63686       -1.66480       -1.87584
C          3.22309       -3.01308       -2.27014
O          3.17406       -0.67077       -2.74591
C          2.65619        0.61619       -2.43349
O          2.96273        1.02502       -1.10629
H          0.67087       -0.46050        0.89782
H          0.43730       -0.05214       -0.80948
H          0.71913        1.23060        0.35301
H          2.98192        0.41814        0.83003
H          2.57924       -2.03597        0.27073
H          4.08149       -1.31777       -0.33290
H          1.55013       -1.71101       -2.01483
H          4.31760       -2.99756       -2.22329
H          2.95573       -3.25472       -3.30429
H          2.85318       -3.81164       -1.61968
H          1.57740        0.65582       -2.62146
H          3.12663        1.33312       -3.11287
