17

C          1.30603        0.72231       -1.79904
C          1.96427        2.07763       -1.45117
C          3.01421        1.68288       -0.46936
N          4.21124        1.56904       -0.92111
N          4.58084        0.26202       -0.84546
C          4.24217       -0.58472       -1.89565
N          3.26430       -0.72948       -2.69025
C          1.98001       -0.08931       -2.89750
H          0.28948        0.95560       -2.14891
H          1.18163        0.09944       -0.90612
H          1.25656        2.74687       -0.97894
H          2.40472        2.54345       -2.33644
H          2.68036        1.23635        0.48745
H          5.54957        0.13546       -0.55597
H          5.08637       -1.27615       -2.06795
H          1.28710       -0.91950       -3.10032
H          2.00252        0.49007       -3.82766
