20

C          1.05786        0.17091        0.03519
C          2.58281        0.03318        0.02434
C          2.97465       -1.07553       -0.92734
C          3.69318       -2.15203       -0.58673
C          3.24413        1.34521       -0.34016
C          3.12120        2.56536        0.53994
C          4.42241        1.82193        0.47421
O          5.47833        2.48344       -0.23318
H          0.58173       -0.77339        0.32324
H          0.67133        0.46136       -0.94816
H          0.73733        0.93315        0.75347
H          2.88535       -0.24691        1.04254
H          2.64438       -0.97520       -1.95995
H          4.05406       -2.30132        0.42572
H          3.94178       -2.90861       -1.32498
H          3.23854        1.52399       -1.41012
H          2.55054        2.49899        1.45820
H          3.06350        3.53512        0.05856
H          4.70535        1.25676        1.35729
H          5.23517        2.69250       -1.14988
