24

C          2.86680       -2.84148       -0.65609
C          2.48655       -1.40727       -0.31860
C          3.13493       -0.37735       -1.25049
C          4.64862       -0.34136       -1.22519
C          5.32938       -0.07812       -0.09499
C          5.37177       -0.61978       -2.52565
C          5.06876        0.36944       -3.65824
C          5.45579        1.80449       -3.33408
H          2.32896       -3.53629       -0.00337
H          3.93834       -3.01606       -0.51831
H          2.60849       -3.08205       -1.69240
H          2.74206       -1.19731        0.72634
H          1.39707       -1.30712       -0.39909
H          2.76121        0.62248       -0.99506
H          2.78006       -0.57524       -2.26885
H          4.81881        0.12514        0.84204
H          6.41390       -0.05801       -0.07451
H          5.10374       -1.63057       -2.85903
H          6.45764       -0.63744       -2.36169
H          4.00626        0.33571       -3.92366
H          5.61848        0.05167       -4.55262
H          4.89657        2.18904       -2.47583
H          5.23746        2.45247       -4.18928
H          6.52515        1.88180       -3.11492
