16

O          0.97488       -0.08456        0.04243
C          2.19037       -0.14003       -0.06034
O          2.94584       -1.17205        0.37298
C          3.35458       -2.08023       -0.65143
C          4.21361       -1.43350       -1.73362
C          5.06252       -0.26868       -1.22644
C          4.26890        0.97124       -0.91746
C          3.00958        1.02519       -0.45438
H          2.47527       -2.56997       -1.08643
H          3.93787       -2.86276       -0.15352
H          3.56283       -1.07819       -2.54365
H          4.85647       -2.20045       -2.18186
H          5.78096       -0.01208       -2.01490
H          5.65066       -0.55963       -0.34845
H          4.76840        1.91378       -1.13623
H          2.50349        1.97814       -0.33929
