22

C          0.86088        0.05762        0.05057
C          2.37689        0.00501        0.06151
C          3.09362        1.05991        0.93756
C          4.16272       -0.00676        1.28303
C          5.44429        0.08681        0.46524
C          3.11162       -1.10524        0.89311
C          2.36659       -1.67565        2.09699
O          3.61222       -2.21771        0.11631
H          0.51306        0.92846       -0.51464
H          0.44447        0.12858        1.06008
H          0.44910       -0.83758       -0.42601
H          2.73698        0.03314       -0.97824
H          2.51662        1.39048        1.80997
H          3.44816        1.94785        0.40628
H          4.42364       -0.00918        2.34982
H          5.24258        0.14239       -0.60940
H          6.08111       -0.78448        0.64811
H          6.01127        0.98064        0.74563
H          1.96643       -0.88871        2.74496
H          3.03400       -2.29636        2.70461
H          1.52947       -2.30340        1.77346
H          4.01708       -1.82992       -0.67691
