14

C          0.88756        0.01939       -0.02203
C          2.39363        0.17287        0.03004
C          3.06927        1.14390        1.01884
O          3.85157        0.03809        1.56534
C          3.16065       -0.88173        0.84566
O          3.23810       -2.08815        0.89227
C          2.26929        1.71051        2.08296
C          1.61601        2.14648        2.99115
H          0.43574        0.87175       -0.53997
H          0.43988       -0.05191        0.97366
H          0.61300       -0.88637       -0.57358
H          2.80299        0.25357       -0.98709
H          3.72364        1.87274        0.53046
H          1.04270        2.49626        3.82114
