20

O          0.92619       -0.00541       -0.02869
C          2.35677        0.05158       -0.08510
C          3.05125        0.03985        1.24255
C          3.10278       -1.18604        0.35800
C          2.38911       -2.44374        0.80216
C          3.22298       -3.58221        0.20783
C          4.63020       -3.00482        0.12694
C          4.39368       -1.56539       -0.32412
H          0.53984        0.88628       -0.06055
H          2.80203        0.64525       -0.87819
H          2.44048        0.00257        2.13767
H          3.94831        0.63807        1.35196
H          1.35544       -2.50130        0.44929
H          2.38755       -2.51303        1.89590
H          2.86172       -3.82383       -0.79906
H          3.17454       -4.49102        0.81451
H          5.27414       -3.55712       -0.56260
H          5.09626       -3.01576        1.11956
H          4.26225       -1.52927       -1.41202
H          5.23426       -0.91873       -0.05441
