18

C          1.71654        1.24710       -0.07913
C          2.53638       -0.03114       -0.00469
C          3.18107       -0.35416       -1.32361
C          4.49346       -0.48620       -1.55917
C          5.13895       -0.86579       -2.86745
O          6.55157       -1.05924       -2.60341
C          6.69278       -0.68198       -1.28316
C          5.58003       -0.34411       -0.64252
H          1.27900        1.46999        0.89944
H          0.89744        1.15064       -0.79957
H          2.33613        2.09988       -0.37579
H          1.88157       -0.86424        0.27594
H          3.27474        0.06872        0.79679
H          2.49136       -0.51998       -2.15087
H          5.04298       -0.06476       -3.60879
H          4.73098       -1.79793       -3.27198
H          7.70129       -0.71478       -0.90583
H          5.51779       -0.03337        0.38742
