22

C          0.53750        0.37943        0.40014
C          2.02471        0.14035        0.18862
C          2.60530        1.04673       -0.90632
O          2.61121        2.40223       -0.48418
C          4.01101        0.58574       -1.28239
C          5.19384        0.61180       -0.26463
C          6.10997        0.81156       -1.49970
C          4.90015        1.51826       -2.15686
H          0.14630       -0.31688        1.14872
H         -0.01969        0.22093       -0.52890
H          0.34253        1.39744        0.74987
H          2.17915       -0.91373       -0.07174
H          2.54407        0.31813        1.13965
H          1.97265        0.98814       -1.80062
H          3.03223        2.44666        0.39226
H          3.92490       -0.41166       -1.74415
H          5.19610        1.46271        0.42498
H          5.36115       -0.30784        0.30241
H          6.39701       -0.12345       -1.99554
H          7.00496        1.41959       -1.34955
H          4.80145        1.39439       -3.23812
H          4.83573        2.58484       -1.91264
