16

C          1.09726       -0.04987        0.20369
C          2.56256        0.10569       -0.01467
C          3.15397        0.57066       -1.12887
O          2.42972        0.99650       -2.23090
C          3.02508        1.06205       -3.46605
C          2.44007        1.65629       -4.51054
C          4.67397        0.57066       -1.12887
C          5.97783        0.57066       -1.12887
H          0.92656       -0.54684        1.16552
H          0.64445       -0.67517       -0.57069
H          0.59893        0.92245        0.23996
H          3.19302       -0.22344        0.80897
H          3.98269        0.57412       -3.55436
H          1.46877        2.12793       -4.41591
H          2.93056        1.67816       -5.47738
H          7.04284        0.57317       -1.12729
