16

C          0.48972       -0.04651        0.12005
C          1.98628        0.02318        0.02298
C          2.73139       -0.64852        0.92183
C          2.66115        0.79285       -1.01513
C          2.23882        1.56905       -2.02636
C          0.87760        1.92081       -2.48885
O          0.89319        3.04382       -3.24013
O         -0.14439        1.29786       -2.27799
H          0.16391       -0.63425        0.98652
H          0.06838       -0.54146       -0.75966
H          0.05822        0.95184        0.23999
H          2.27013       -1.23629        1.71011
H          3.81700       -0.64215        0.90665
H          3.75054        0.72177       -0.94335
H          3.02753        2.00492       -2.63361
H          1.75057        3.49884       -3.31255
