16

C          0.95350       -0.03301        0.00025
C          2.45474        0.05839        0.04829
C          3.11544        0.97067        0.77376
O          2.45504        1.87963        1.56545
C          3.06983        3.05199        1.91668
C          2.45931        3.95060        2.69097
C          3.21474       -0.93064       -0.82039
C          3.86667       -1.77904       -1.56555
H          0.46076        0.70215        0.64391
H          0.62306       -1.02707        0.31876
H          0.60024        0.13623       -1.02289
H          4.19342        1.04717        0.79662
H          4.05300        3.20676        1.49702
H          1.46227        3.76362        3.07777
H          2.93728        4.89072        2.94160
H          4.39835       -2.47279       -2.17420
