14

C          1.27299       -0.09783        0.03955
O          2.70009       -0.07976        0.04899
C          3.25854       -1.15865       -0.55695
O          2.66117       -2.08782       -1.07898
C          4.69705       -1.11526       -0.53385
C          6.00091       -1.11526       -0.53385
C          7.52091       -1.11526       -0.53385
C          8.19934       -1.86014        0.34343
H          0.91824        0.80113        0.55071
H          0.89571       -0.97333        0.57800
H          0.89550       -0.08314       -0.98806
H          8.01598       -0.49118       -1.27069
H          7.69331       -2.48224        1.07511
H          9.28424       -1.86264        0.34450
