13

N          1.06837        0.01362       -0.07170
C          2.32933        0.01362       -0.07170
C          3.84933        0.01362       -0.07170
C          4.54775        0.89592       -0.79491
C          3.97902        1.98053       -1.70171
N          5.17225        2.79285       -2.13834
C          6.17703        2.17242       -1.59217
N          5.89885        1.07074       -0.85769
H          4.32161       -0.72185        0.56685
H          3.28033        2.63293       -1.16926
H          3.50329        1.54998       -2.58888
H          7.23249        2.47412       -1.66983
H          6.55309        0.59088       -0.25847
