20

C          2.75230       -2.62174        0.97803
O          2.33774       -2.31101       -0.34613
C          2.89036       -1.07969       -0.79881
O          4.31013       -1.09644       -0.87091
C          4.77587       -2.05700       -1.81180
C          6.27029       -2.05105       -1.74876
C          7.01396       -3.11336       -1.39743
C          8.50553       -3.10742       -1.33846
H          2.30207       -3.57734        1.25987
H          2.41268       -1.85299        1.67758
H          3.84012       -2.72986        1.03436
H          2.58537       -0.27103       -0.12509
H          2.47299       -0.85457       -1.78689
H          4.44897       -1.78100       -2.82021
H          4.38263       -3.05140       -1.57263
H          6.75155       -1.11117       -2.00630
H          6.52641       -4.04709       -1.12511
H          8.92836       -2.14211       -1.63399
H          8.90478       -3.87421       -2.00921
H          8.84109       -3.33229       -0.32131
