15

N          0.94655        0.74521       -1.12059
C          2.21182        0.68721       -1.34075
N          3.16278        1.03079       -0.44051
C          4.52753        1.03424       -0.47758
N          5.28141        1.40254        0.51942
C          6.56527        1.25719        0.06957
C          6.65172        0.80846       -1.18298
C          5.28348        0.59525       -1.72043
H          0.43616        0.43166       -1.95493
H          2.60790        0.34130       -2.31074
H          2.78506        1.34655        0.44568
H          7.40257        1.49923        0.71307
H          7.56789        0.62759       -1.72388
H          5.07832       -0.45230       -1.95044
H          5.05399        1.24714       -2.56596
