18

C          1.01391       -0.03769        0.06656
C          2.50216       -0.06799        0.08018
C          3.26349       -1.17497        0.09905
O          4.64950       -1.13548        0.11421
C          5.12080        0.24674        0.10777
C          4.42201        1.18865        1.14579
C          3.27585        1.21662        0.07665
C          4.44770        1.16946       -0.96366
H          0.58814       -1.04631        0.07899
H          0.65183        0.47061       -0.83259
H          0.63660        0.49824        0.94319
H          2.89785       -2.19264        0.10525
H          6.21410        0.27649        0.12100
H          4.92580        2.14844        1.31131
H          4.17989        0.74876        2.11783
H          2.65642        2.11700        0.06055
H          4.95578        2.12618       -1.13417
H          4.22956        0.71191       -1.93322
