16

O          1.07006       -0.20335       -0.43020
C          2.24588       -0.19301       -0.11814
C          3.07592       -1.36765        0.21665
C          4.29529       -0.93798        0.57668
C          4.44425        0.55876        0.54172
C          3.11896        1.00626       -0.02456
C          3.08852        2.04056       -1.12918
C          2.58574        2.39127        0.24228
H          2.70957       -2.37693        0.15616
H          5.10570       -1.59578        0.86264
H          5.28779        0.85043       -0.09131
H          4.59678        0.94263        1.55571
H          2.35521        1.91755       -1.92024
H          4.02354        2.47700       -1.45994
H          1.51423        2.51207        0.36798
H          3.17934        3.07623        0.83545
