18

C          0.79203        0.05902       -0.32335
C          2.11280        0.02170        0.36314
C          3.30917       -0.72352       -0.16557
C          3.50621       -1.04125       -1.58880
C          3.67238        0.04002       -2.36893
C          3.53962        1.28740       -1.53848
O          4.76204        2.00461       -1.60588
C          3.31636        0.80464       -0.12081
H          0.22619       -0.84790       -0.08627
H          0.86153        0.14235       -1.41075
H          0.21411        0.91363        0.04326
H          1.96447       -0.01836        1.43889
H          3.94245       -1.25480        0.53565
H          3.54891       -2.06091       -1.95204
H          3.86058        0.03428       -3.43129
H          2.72458        1.92552       -1.89098
H          5.44808        1.40923       -1.25689
H          3.90815        1.32131        0.62259
