20

C          3.33544        0.54030        0.98702
C          2.46379       -0.03249       -0.12895
C          3.03129       -1.22284       -0.87846
O          2.14134       -2.18970       -1.34492
C          0.92456       -1.85965       -1.87956
C          0.14020       -2.78660       -2.43272
C          4.34894       -1.44812       -1.03724
C          4.94495       -2.62281       -1.74679
H          2.82531        1.38408        1.46354
H          4.29416        0.91196        0.61310
H          3.53049       -0.21295        1.75760
H          2.24783        0.76384       -0.85219
H          1.50931       -0.31445        0.33281
H          0.65221       -0.81561       -1.84204
H          0.45591       -3.82483       -2.47293
H         -0.81976       -2.52877       -2.86454
H          5.07383       -0.73558       -0.65705
H          4.19457       -3.29600       -2.17096
H          5.56686       -3.19840       -1.05524
H          5.58042       -2.27196       -2.56551
