17

N          1.02305        0.97320       -1.65532
C          2.28395        0.96188       -1.66137
C          3.80387        0.94822       -1.66865
C          4.47890       -0.05026       -1.08213
C          5.96028       -0.05404       -1.09829
C          6.63336       -1.25712       -0.38305
C          7.68780       -1.24267       -1.50843
C          6.61772       -0.58197       -2.40108
H          4.28574        1.77939       -2.17015
H          3.95428       -0.86528       -0.58872
H          6.38172        0.90609       -0.76731
H          6.03957       -2.17931       -0.35774
H          7.01718       -1.05760        0.62135
H          8.04519       -2.22123       -1.83801
H          8.54867       -0.59789       -1.29848
H          6.01520       -1.30366       -2.96627
H          6.98938        0.18306       -3.08823
