22

C          0.88005        0.19744       -0.28286
C          2.40032        0.10379       -0.13060
C          2.94201       -1.31155       -0.43373
C          2.39150       -2.43106        0.42601
C          2.64338       -2.36604        1.90646
C          1.74614       -3.47903       -0.11130
C          3.05100        1.09796       -1.07083
C          3.84829        2.10176       -0.68380
H          0.36655       -0.48076        0.40566
H          0.56244       -0.04914       -1.30232
H          0.53014        1.21252       -0.06083
H          2.65159        0.36531        0.90571
H          4.03412       -1.30909       -0.31270
H          2.76431       -1.54243       -1.49288
H          3.47620       -1.69655        2.14174
H          2.90415       -3.35400        2.30497
H          1.75265       -2.00337        2.42996
H          1.57289       -3.55926       -1.18137
H          1.37178       -4.29115        0.50593
H          2.84923        0.97314       -2.13406
H          4.08636        2.27416        0.36070
H          4.28200        2.77729       -1.41554
