24

C          0.63532       -2.16745       -1.08201
C          2.14968       -2.36520       -1.07138
C          2.98500       -1.43230       -0.19607
C          2.41205       -0.46263        0.54394
C          4.52482       -1.63329       -0.23306
C          5.10892       -0.77963       -1.37582
C          5.21186       -1.21117        1.08776
C          4.92082       -3.10737       -0.47674
H          0.16746       -2.90869       -1.73859
H          0.36305       -1.17455       -1.45394
H          0.21013       -2.29983       -0.08169
H          2.50385       -2.28050       -2.10572
H          2.32510       -3.39779       -0.74900
H          1.33994       -0.29870        0.56805
H          2.98867        0.23216        1.14565
H          4.92048        0.28843       -1.21356
H          4.67546       -1.05030       -2.34469
H          6.19496       -0.91307       -1.45213
H          5.14229       -0.13278        1.26627
H          6.28119       -1.45408        1.07257
H          4.76945       -1.73030        1.94625
H          4.58414       -3.46704       -1.45525
H          4.50097       -3.76416        0.29372
H          6.01017       -3.23255       -0.45767
