16

C          1.19105        0.04882       -0.08714
C          2.39048        0.10997       -0.07146
C          3.81755        0.19369       -0.04946
C          4.66597       -0.56115       -1.13126
C          5.75978       -0.23393       -0.05172
C          4.63913       -0.69462        0.94853
C          5.74956        1.30161        0.04649
O          4.33358        1.54514        0.04398
H          0.12650        0.00859       -0.09893
H          4.78309       -0.05758       -2.09555
H          4.44487       -1.62099       -1.30146
H          6.70516       -0.77232       -0.07379
H          4.72978       -0.31869        1.97194
H          4.41507       -1.76712        0.97584
H          6.21239        1.78123       -0.82026
H          6.18947        1.66624        0.97865
