18

C          1.63805       -1.11888        0.27071
C          2.56816        0.06584        0.19980
O          2.74880        0.78447        1.18590
C          3.24407        0.32268       -1.15677
C          2.85800        1.69246       -1.65169
C          2.23714        1.93432       -2.81502
C          4.73643        0.20370       -0.98227
C          5.51539       -0.65762       -1.65236
H          1.34762       -1.29730        1.30979
H          2.14697       -2.01057       -0.10396
H          0.74370       -0.91641       -0.32316
H          2.88846       -0.44024       -1.86131
H          3.10254        2.53397       -1.00342
H          1.97086        1.13738       -3.50210
H          1.99051        2.95076       -3.10791
H          5.19766        0.86659       -0.24981
H          5.11355       -1.33913       -2.39514
H          6.58633       -0.68685       -1.47342
