17

C          0.80001       -0.78030        2.07699
N          2.21178       -1.02640        2.35073
N          2.95510       -0.87892        1.14609
C          4.29588       -1.18365        1.17838
N          5.22441       -0.72314        0.41896
C          4.82560       -2.13301        2.12281
C          5.26021       -2.98560        3.00839
C          5.76687       -3.97952        4.04077
H          0.21982       -0.94456        2.99042
H          0.41264       -1.45095        1.30302
H          0.63879        0.25742        1.76671
H          2.31431       -1.98384        2.70496
H          2.75860       -0.03288        0.61578
H          4.82929       -0.06273       -0.24920
H          6.78788       -4.28469        3.79533
H          5.12433       -4.86429        4.05352
H          5.76133       -3.52146        5.03373
