20

C          3.38176       -1.07290       -0.67122
C          2.42201        0.00044       -0.18072
C          2.94831        0.74494        1.03639
C          4.21408        1.57882        0.86462
C          2.89031        2.27328        0.98101
C          2.61446        3.12838        2.17036
C          2.76041        0.06185        2.35754
O          3.59424       -0.72212        2.79285
H          2.97449       -1.56506       -1.56004
H          3.55226       -1.83484        0.09471
H          4.35245       -0.64475       -0.94127
H          1.45892       -0.46205        0.07044
H          2.22418        0.69661       -1.00367
H          4.70897        1.58878       -0.09990
H          4.90874        1.61830        1.69869
H          2.49376        2.73519        0.08171
H          3.08206        2.74620        3.08225
H          1.53579        3.20206        2.33968
H          2.99872        4.13914        1.99505
H          1.82657        0.28722        2.89765
