20

C          0.93386        0.12361       -0.10449
O          2.35031        0.07178       -0.00053
C          2.87986        1.27236        0.56478
C          4.36525        1.15283        0.60591
O          5.03877        2.26637        1.21905
C          5.19073        0.99921        1.87632
C          4.57518        0.96237        3.24006
C          6.56250        0.40932        1.75604
H          0.59240       -0.78513       -0.60743
H          0.61921        0.98858       -0.69672
H          0.48204        0.16347        0.89105
H          2.44225        1.42801        1.55463
H          2.60663        2.12097       -0.07310
H          4.76774        0.79462       -0.33353
H          3.69390        1.60455        3.32582
H          5.29442        1.30885        3.99064
H          4.28298       -0.06060        3.49645
H          6.97641        0.53559        0.75005
H          6.53130       -0.66294        1.97469
H          7.25076        0.88433        2.46261
