16

C          1.13001        0.06321       -0.30523
C          2.35554       -0.09811        0.18365
C          2.88357       -1.23334        0.90574
C          4.09991       -0.97684        1.40760
C          4.53428        0.39598        1.05941
O          4.22634        1.43445        2.02636
C          3.40600        2.12140        1.04516
C          3.43755        0.93038        0.09381
H          0.37377       -0.70693       -0.19265
H          0.83464        0.98019       -0.80661
H          2.34833       -2.16650        1.02517
H          4.69532       -1.66490        1.99172
H          5.56976        0.47216        0.70723
H          3.91895        3.01727        0.67294
H          2.42683        2.40798        1.43933
H          3.77833        1.13519       -0.92331
