16

O          1.84580       -1.58967       -0.95894
C          2.67468       -0.78247       -0.56002
C          3.46595        0.03303       -1.50270
C          4.37771        0.90988       -1.05825
C          5.21683        1.75501       -1.97972
C          6.69078        1.53024       -1.83118
C          7.32715        0.20194       -2.15631
O          7.38494        1.30820       -3.06622
H          2.87574       -0.62513        0.51255
H          3.26424       -0.12878       -2.55585
H          4.54788        1.04334        0.00711
H          5.00341        2.80858       -1.76329
H          4.91532        1.59392       -3.02278
H          7.15759        2.16780       -1.09267
H          6.69254       -0.63550       -2.41869
H          8.24105       -0.06811       -1.64191
