20

C          1.02349        0.03891        0.00723
C          2.54593        0.00713        0.13621
C          2.93879        0.06808        1.59216
C          3.67835        1.04393        2.13302
C          3.09419       -1.28964       -0.45108
C          2.96061       -1.48970       -1.97020
O          4.34479       -1.91528       -2.06061
C          4.60276       -1.33959       -0.75210
H          0.61232        0.95826        0.43862
H          0.55700       -0.81325        0.51489
H          0.71941       -0.00051       -1.04420
H          2.95564        0.86973       -0.40465
H          2.58466       -0.73385        2.23965
H          4.05431        1.87432        1.54335
H          3.92014        1.03326        3.19229
H          2.75463       -2.18018        0.09768
H          2.78959       -0.59059       -2.57054
H          2.26677       -2.27788       -2.27520
H          5.11647       -0.37752       -0.84859
H          5.18581       -2.01065       -0.11605
