18

C          1.05506       -0.56845       -0.55208
O          2.27016       -0.10084        0.02826
C          2.35246       -0.43191        1.35185
C          3.50593       -0.52425        2.02557
C          4.86622       -0.29592        1.52428
C          5.96127       -1.14296        2.12900
C          5.57519       -1.33622        0.69272
O          6.54912       -0.87266       -0.25834
H          1.04148       -0.27473       -1.60516
H          0.18457       -0.11743       -0.06169
H          0.99665       -1.66104       -0.49667
H          1.40071       -0.59369        1.84523
H          3.43131       -0.77011        3.08372
H          5.09194        0.74391        1.31402
H          5.70047       -1.93976        2.81725
H          6.90608       -0.66540        2.35570
H          5.03327       -2.24041        0.43466
H          6.87085        0.02090       -0.05070
