17

N          1.39657       -0.08160       -0.02133
N          2.80708       -0.09923       -0.17846
C          3.58375        1.12674       -0.09826
C          4.83423        1.02296       -0.97838
C          5.51604       -0.31633       -0.89532
C          4.89046       -1.43250       -0.48576
C          3.43288       -1.34361       -0.14611
N          2.77571       -2.42375        0.15730
H          1.13268        0.48276        0.78536
H          1.11938       -1.04480        0.22307
H          3.88223        1.28871        0.94533
H          2.98605        1.99314       -0.40232
H          5.53906        1.80933       -0.68638
H          4.56417        1.20664       -2.02695
H          6.55282       -0.37238       -1.21408
H          5.37670       -2.39486       -0.45447
H          3.38788       -3.24122        0.11481
