20

O          1.97875       -1.31984       -3.13052
C          2.76418       -0.17774       -3.43800
C          2.34591        0.90399       -2.50222
C          3.10230        1.64076       -1.67574
C          4.57622        1.51350       -1.58206
C          5.24002        2.46937       -0.54661
C          6.24273        1.33502       -0.25939
C          5.13451        0.35593       -0.70952
H          2.24468       -2.01818       -3.75015
H          2.55486        0.11814       -4.47093
H          3.82020       -0.44353       -3.35049
H          1.27384        1.09868       -2.50264
H          2.61542        2.38827       -1.05348
H          5.06224        1.57911       -2.56582
H          4.61703        2.72203        0.32138
H          5.66794        3.38991       -0.95199
H          6.57446        1.24294        0.77764
H          7.12047        1.34824       -0.91612
H          4.48084        0.03084        0.10893
H          5.48944       -0.52558       -1.25039
