18

C          1.02874        0.01972        0.00625
C          2.53132       -0.09643       -0.04895
O          3.11287       -0.98657        0.57063
C          3.26331        0.86893       -0.96161
C          3.02971        2.32061       -0.60567
C          4.23768        2.99923       -1.20713
O          5.31757        2.06774       -1.10998
C          4.77559        0.75916       -0.86269
H          0.62863       -0.72504        0.70031
H          0.61314       -0.16433       -0.98737
H          0.73877        1.01141        0.36027
H          2.94842        0.67485       -1.99399
H          3.02374        2.45523        0.48317
H          2.08979        2.72109       -0.99679
H          4.49990        3.92733       -0.69179
H          4.07999        3.22132       -2.26796
H          5.12419        0.44300        0.12598
H          5.18181        0.06292       -1.60322
