16

C          1.22497        0.47005       -0.39617
C          2.61020       -0.04240       -0.08187
O          3.01319       -1.10104       -0.56184
C          3.44136        0.83140        0.85118
C          4.91002        0.59177        0.68757
C          5.70548        1.28575       -0.14298
C          5.53893       -0.44830        1.54182
O          4.92364       -1.02555        2.42995
H          0.68747       -0.25818       -1.00920
H          1.30586        1.40788       -0.95179
H          0.67046        0.62984        0.53179
H          3.10881        0.65359        1.87828
H          3.21781        1.87948        0.61955
H          5.30133        2.06630       -0.78095
H          6.77188        1.09845       -0.22290
H          6.60927       -0.64578        1.36062
