20

C          1.01249        0.07806        0.02059
C          2.52831        0.06394       -0.05997
C          3.18126       -0.85576       -1.14442
C          4.68730       -0.72919       -0.96105
C          4.76150        0.79499       -0.84393
C          3.26680        1.08779       -0.99014
C          2.85136        2.52257       -1.12913
O          2.81929        0.22074       -2.12563
H          0.65285       -0.80489        0.55865
H          0.54201        0.08091       -0.96790
H          0.66570        0.96415        0.56135
H          2.96168       -0.02860        0.94389
H          2.71934       -1.81900       -1.36029
H          5.24160       -1.09927       -1.82849
H          5.04426       -1.23341       -0.05825
H          5.35448        1.23331       -1.65273
H          5.16252        1.11844        0.12127
H          3.11009        3.09169       -0.23002
H          1.77129        2.61531       -1.28120
H          3.34768        2.99719       -1.98158
