15

C         -0.00002        0.87899       -0.00288
C         -0.76761       -0.39699        0.01736
C          0.75150       -0.44006        0.08417
N          1.45310       -0.83828        1.28720
N          0.97682       -0.57981        2.52747
C          1.92766       -1.11223        3.29850
C          2.93568       -1.66114        2.49887
N          2.63328       -1.49262        1.20896
H         -0.03813        1.50975        0.87886
H          0.05750        1.42826       -0.93551
H         -1.24059       -0.72562       -0.90057
H         -1.33217       -0.63348        0.91328
H          1.27262       -0.75689       -0.81324
H          1.84064       -1.07360        4.37484
H          3.84982       -2.16275        2.78254
