16

C          0.89163       -0.24292        0.02169
C          2.38404        0.01208       -0.08752
O          2.75555        1.01168        0.86231
C          3.21968       -1.20098        0.15800
O          3.03825       -2.33199       -0.70672
C          4.24250       -1.57421       -0.88800
C          5.45320       -2.18039       -0.43814
C          6.52390       -2.57713       -0.06392
H          0.34184        0.69446       -0.12025
H          0.62211       -0.62324        1.01203
H          0.55362       -0.96172       -0.73126
H          2.59645        0.43022       -1.07764
H          2.47885        0.70141        1.74214
H          3.39569       -1.41680        1.20284
H          4.30580       -0.99290       -1.79623
H          7.48990       -2.88140        0.26469
