19

C          0.73454        1.36063       -0.28294
C         -0.68854        0.98021       -0.58035
C         -0.68917       -0.44887       -1.04180
C          0.73351       -0.93284       -1.02277
C          1.37054       -0.00778        0.03354
C          0.84757       -0.44925        1.40419
C         -0.69511       -0.45666        1.42214
N         -1.37963       -0.05479        0.18237
H          0.80756        2.06791        0.54900
H          1.19667        1.80748       -1.17016
H         -1.28265        1.71839       -1.09669
H         -1.28366       -0.74527       -1.89220
H          1.19569       -0.77768       -2.00394
H          0.80542       -1.99296       -0.76068
H          2.46297        0.00227        0.00105
H          1.22237        0.22802        2.18106
H          1.22413       -1.45166        1.64086
H         -1.04055        0.19897        2.23085
H         -1.03868       -1.46319        1.69064
