18

C          1.51217       -0.64620        1.00704
C          2.31679       -0.08482        0.09356
C          2.82251        1.32693        0.19194
C          4.35797        1.41789        0.24185
C          4.78907        2.84374        0.46867
C          5.85997        3.48764       -0.01826
C          6.91223        2.88678       -0.86285
O          7.84691        3.56233       -1.27826
H          1.14446       -1.65925        0.87668
H          1.19583       -0.11182        1.89634
H          2.59395       -0.65535       -0.79223
H          2.40099        1.80819        1.08166
H          2.45264        1.88730       -0.67289
H          4.77436        1.01738       -0.68918
H          4.73821        0.80199        1.06678
H          4.13425        3.42722        1.11712
H          6.02501        4.53385        0.22231
H          6.82476        1.81383       -1.08246
