18

C          1.74046       -0.98187       -0.85422
C          2.58827       -0.03448       -0.01885
C          3.12085        1.09876       -0.84690
C          4.42877        1.30282       -1.07036
C          4.98689        2.41448       -1.90572
O          5.19102        1.94494       -3.24368
C          6.33754        1.25765       -3.45647
O          7.21371        1.01860       -2.63940
H          1.36283       -1.79898       -0.23145
H          2.32449       -1.42056       -1.67017
H          0.87966       -0.46411       -1.29078
H          3.40563       -0.59921        0.44475
H          1.98233        0.37808        0.79549
H          2.38670        1.76662       -1.29285
H          5.16535        0.62974       -0.63526
H          5.91300        2.80932       -1.47142
H          4.28422        3.25377       -1.95988
H          6.36610        0.92995       -4.50610
