20

C          0.93201       -0.18938       -0.03971
C          2.43119        0.02879       -0.07723
C          3.28105       -0.93351        0.81823
C          4.38732       -0.69322       -0.24845
C          3.20614       -0.62914       -1.26927
O          5.10017        0.55665       -0.05696
C          4.29773        1.72781       -0.24474
C          2.84185        1.49284        0.18209
H          0.67633       -1.24256       -0.19746
H          0.43327        0.39294       -0.82167
H          0.51534        0.11360        0.92650
H          2.92299       -1.96872        0.87435
H          3.50547       -0.58607        1.83077
H          5.08684       -1.52165       -0.38719
H          2.83304       -1.60991       -1.58916
H          3.35570       -0.01118       -2.15857
H          4.34382        1.99317       -1.30705
H          4.73941        2.55530        0.31867
H          2.19324        2.19282       -0.35687
H          2.73132        1.71513        1.25082
