20

C          0.93521        0.09288        0.21173
C          2.44594        0.08093        0.03220
O          2.73867        0.04883       -1.38242
C          3.21557        1.15697        0.84599
C          4.26354        0.07213        1.21621
C          4.70850        0.07713        2.67046
O          5.43965        0.03533        0.37703
C          3.18603       -0.99230        0.87508
H          0.49147        0.96223       -0.28577
H          0.65117        0.13129        1.26817
H          0.48750       -0.80734       -0.22329
H          2.49300        0.92591       -1.72037
H          2.66142        1.56494        1.69969
H          3.60180        1.99626        0.25963
H          5.33613        0.94971        2.88212
H          5.29454       -0.82007        2.89868
H          3.85609        0.10408        3.35743
H          5.85607        0.90814        0.47231
H          2.62106       -1.36218        1.73963
H          3.54959       -1.85660        0.31079
