16

O          1.37331       -0.18005       -0.76897
C          2.21443        0.08630        0.08092
C          2.85767       -0.95284        0.91887
C          3.76811       -0.57210        1.82814
C          4.42104       -1.53896        2.67532
C          4.14088       -2.84614        2.59048
C          3.14192       -3.40919        1.61909
C          2.44862       -2.38238        0.70170
H          2.53612        1.12490        0.26621
H          4.04986        0.46804        1.96755
H          5.15076       -1.17476        3.39352
H          4.64815       -3.54854        3.24675
H          2.37628       -3.95287        2.18635
H          3.64790       -4.15736        0.99631
H          1.36336       -2.47030        0.83967
H          2.64963       -2.65673       -0.34195
