18

O          1.01228        0.01385        0.21885
C          2.23641        0.04921        0.06795
C          3.02679        1.26253        0.49762
C          3.98942        1.74782       -0.57827
C          5.22986        0.91841       -0.76446
C          5.39930       -0.38063       -0.47364
C          4.35513       -1.34812        0.00847
C          2.96227       -1.11689       -0.56434
H          3.54277        1.03562        1.43709
H          2.30765        2.06280        0.71127
H          4.31792        2.75542       -0.29275
H          3.47951        1.84466       -1.54403
H          6.08841        1.46262       -1.15914
H          6.38988       -0.80891       -0.62921
H          4.34180       -1.34942        1.10469
H          4.67580       -2.35090       -0.30141
H          2.35728       -2.01268       -0.37825
H          2.99491       -0.95847       -1.64791
