20

N          0.90220        0.10965        0.14059
C          2.36089        0.07863       -0.01443
C          3.03427        1.09200        0.93960
N          4.02230        0.03811        1.27621
C          2.99389       -0.99305        0.92272
C          3.62423       -2.21679        0.26118
C          2.54391       -3.20426       -0.08136
C          2.49554       -4.45771        0.38836
H          0.45830        0.87323       -0.36749
H          0.57737        0.18264        1.10379
H          2.72755        0.08989       -1.04626
H          2.43987        1.41378        1.80425
H          3.46209        1.97734        0.46098
H          4.31496        0.02256        2.25178
H          2.38470       -1.26245        1.79931
H          4.35695       -2.67195        0.93920
H          4.15905       -1.94031       -0.65556
H          1.75998       -2.86308       -0.75646
H          3.25423       -4.84462        1.06156
H          1.68773       -5.12544        0.10602
