18

C          0.91119        0.07813       -0.16591
C          2.43917        0.07700       -0.01149
C          3.09963        0.07861       -1.39860
C          2.85744        1.32337        0.74395
C          3.46526        1.25238        1.93528
O          3.77384        0.07258        2.57514
C          3.46406       -1.10523        1.93207
C          2.85614       -1.17245        0.74008
H          0.56307        0.97418       -0.69444
H          0.40785        0.05579        0.80942
H          0.56630       -0.79418       -0.73385
H          2.81719        0.96834       -1.97402
H          2.79916       -0.79870       -1.98424
H          4.19383        0.06661       -1.32548
H          2.64944        2.29424        0.30322
H          3.77739        2.10678        2.51963
H          3.77436       -1.96148        2.51444
H          2.64670       -2.14131        0.29698
