13

C          1.69170       -0.17257        1.08499
C          2.57343        0.38477       -0.09742
C          3.08670        1.34968        0.91592
N          3.98082        2.32676        0.95761
N          4.20659        2.82035        2.13932
N          3.61117        2.32261        3.24034
C          2.72814        1.30675        3.15251
C          2.43240        0.79432        1.94794
H          1.83351       -1.23981        1.28877
H          0.61873        0.01568        0.96221
H          2.00116        0.78785       -0.93927
H          3.30279       -0.33606       -0.48467
H          2.30782        0.94793        4.08110
