18

C          0.96696        0.03797       -0.06489
C          2.47079        0.04301        0.03651
C          3.05616        0.52308        1.33989
C          3.36462        2.00664        1.31000
O          4.07234        2.55160        0.46867
C          3.20271       -0.38268       -1.01321
C          4.69214       -0.40950       -1.13724
O          5.09495       -1.76158       -1.29791
H          0.49763        0.44972        0.83453
H          0.59587       -0.98417       -0.19253
H          0.63438        0.64561       -0.91309
H          3.97287       -0.01192        1.60795
H          2.35558        0.33856        2.16288
H          2.93859        2.59103        2.14380
H          2.68290       -0.71783       -1.91117
H          5.21633        0.00809       -0.27345
H          5.00287        0.15167       -2.02214
H          4.78772       -2.23726       -0.50906
