18

C          0.93122       -0.28125        1.09214
C          2.42448       -0.30162        1.07130
C          3.17306        0.77619        0.78417
C          4.66670        0.77519        0.73291
O          5.13698        1.76021        1.64902
C          6.55880        1.77509        1.69828
C          7.00636        2.83169        2.67825
O          8.04587        3.47464        2.55045
H          0.55073       -1.26648        1.38136
H          0.53132       -0.04768        0.10058
H          0.55719        0.44732        1.81745
H          2.90289       -1.25037        1.30279
H          2.68826        1.72312        0.55665
H          4.99492        1.03137       -0.28061
H          5.07322       -0.20693        1.00173
H          6.97075        2.00784        0.71079
H          6.92863        0.80791        2.05241
H          6.39619        2.92326        3.59292
