18

C          0.85952        0.12838        0.21604
C          2.30292       -0.29503       -0.02845
O          2.36424       -1.74021        0.03899
C          2.17664       -2.41126       -1.14106
C          2.39161       -1.88543       -2.35036
C          2.96275       -0.55607       -2.52911
C          2.10811        0.67141       -2.50538
C          2.91915        0.29475       -1.28131
H          0.49577       -0.29225        1.16025
H          0.18804       -0.25495       -0.56090
H          0.75926        1.21663        0.25218
H          2.89445        0.06177        0.82282
H          1.85675       -3.42959       -0.96775
H          2.20495       -2.48736       -3.23498
H          3.87126       -0.52447       -3.12331
H          1.03245        0.55092       -2.51096
H          2.44329        1.52904       -3.08107
H          3.80260        0.88146       -1.05619
