22

C          1.90070        1.04185        0.65377
O          2.24885       -0.15328       -0.02881
C          2.82120       -1.20291        0.78104
C          1.89003       -1.88951        1.80733
C          2.52492       -3.23767        1.42369
C          2.97353       -2.59642        0.08009
C          2.00415       -2.85741       -1.07505
C          4.40791       -2.93528       -0.31543
H          1.62225        1.79620       -0.08669
H          2.75007        1.41185        1.23462
H          1.04623        0.86119        1.31173
H          3.75752       -0.85891        1.24301
H          0.82338       -1.81427        1.56820
H          2.03827       -1.58841        2.84807
H          1.82703       -4.07699        1.35249
H          3.34832       -3.52892        2.08705
H          0.96667       -2.64463       -0.79379
H          2.05189       -3.90313       -1.39521
H          2.24943       -2.22919       -1.93851
H          5.10509       -2.77187        0.51367
H          4.73790       -2.31345       -1.15420
H          4.49293       -3.98510       -0.61666
