16

C          0.95161        0.10573        0.13888
O          2.36438        0.06024       -0.00941
C          2.79963       -0.75653       -1.09586
C          2.32616       -0.21370       -2.44472
C          4.31963       -0.75653       -1.09586
C          5.62349       -0.75653       -1.09586
C          7.06368       -0.76589       -1.09808
O          7.68335       -1.62908       -1.70180
H          0.72362        0.55325        1.11055
H          0.51578       -0.89813        0.10568
H          0.50549        0.73775       -0.63320
H          2.45014       -1.78529       -0.94889
H          2.57248        0.84914       -2.54644
H          1.24056       -0.30171       -2.54987
H          2.78705       -0.75475       -3.27878
H          7.54711        0.04639       -0.53275
