15

C          0.59949        0.29223        1.84332
C          0.41008        0.90081        0.49371
N          0.65673       -0.54094        0.63198
C          1.89253       -1.01662        0.30286
N          3.05630       -0.35369        0.23114
N          3.95740       -1.29630       -0.07652
C          3.42632       -2.54760       -0.19208
C          2.08043       -2.39489        0.02691
H         -0.26531        0.06991        2.45067
H          1.53870        0.43936        2.35959
H          1.21003        1.48715        0.06264
H         -0.59470        1.13070        0.16972
H          4.92721       -1.01825       -0.18320
H          4.03706       -3.41062       -0.40840
H          1.32561       -3.16499        0.02350
