16

C          1.00618        0.19092       -0.06172
C          2.48576        0.03397       -0.10576
C          3.23270       -1.06783       -0.16363
C          4.66477       -0.69816       -0.15013
C          4.56349        0.80124       -0.39524
O          3.22304        1.21976       -0.06160
C          2.78652       -2.46380       -0.21791
O          3.58045       -3.39577       -0.26643
H          0.47872       -0.76452       -0.11479
H          0.66847        0.80558       -0.90225
H          0.70807        0.68735        0.86738
H          5.25899       -1.18931       -0.92569
H          5.10868       -0.91091        0.82834
H          4.74137        1.04423       -1.45023
H          5.27968        1.36462        0.21136
H          1.69893       -2.63180       -0.21579
