18

C          0.94010       -0.10972        0.07923
C          2.41494       -0.07710       -0.15400
C          3.04669        0.11277       -1.32224
C          4.54441        0.23000       -1.47468
O          4.79922        0.73780       -2.80471
C          3.56458        0.66336       -3.41713
C          2.53622        0.30765       -2.65097
C          1.13450        0.11927       -3.10467
H          0.74044       -0.25830        1.14583
H          0.46743       -0.93501       -0.45979
H          0.47660        0.83951       -0.20570
H          3.02202       -0.18277        0.74258
H          5.02680       -0.75068       -1.39125
H          4.98295        0.92038       -0.74699
H          3.56931        0.91406       -4.46543
H          1.03980        0.28574       -4.18355
H          0.45709        0.81761       -2.60616
H          0.80026       -0.90419       -2.90534
