24

C          1.00327        0.00669       -0.34866
C          2.51033       -0.05723       -0.13658
C          2.95567        0.28848        1.29915
C          2.36258       -0.68182        2.33013
C          4.49111        0.27558        1.44080
C          5.26603        1.26598        0.56255
C          4.89462        2.72097        0.81088
O          6.66155        1.10293        0.82731
H          0.77128       -0.09904       -1.41347
H          0.59712        0.96419       -0.00779
H          0.48657       -0.80023        0.17861
H          2.96505        0.64888       -0.83952
H          2.87071       -1.05599       -0.41138
H          2.58380        1.29159        1.54424
H          2.74861       -1.69614        2.18672
H          1.27124       -0.72102        2.27792
H          2.62207       -0.36363        3.34580
H          4.86890       -0.73571        1.23339
H          4.75587        0.46304        2.49047
H          5.12949        1.03021       -0.49745
H          4.91714        2.95393        1.88165
H          3.89658        2.95078        0.42726
H          5.61438        3.39075        0.32813
H          6.81735        1.33714        1.75823
