18

C          1.06179       -0.02386        0.00352
C          2.58407        0.01526        0.03396
C          3.11971        1.37396        0.48796
O          2.66645        1.66304        1.80547
C          4.63971        1.37396        0.48796
C          5.94357        1.37396        0.48796
C          7.46357        1.37396        0.48796
C          8.14252        0.44811        1.17097
H          0.71677       -0.99822       -0.35625
H          0.66346        0.74590       -0.66490
H          0.63977        0.13361        1.00125
H          2.96983       -0.22500       -0.96423
H          2.93288       -0.77282        0.71327
H          2.76126        2.16885       -0.17473
H          3.13920        1.05940        2.40343
H          7.95726        2.15251       -0.08423
H          7.63622       -0.32449        1.74070
H          9.22732        0.44780        1.17308
