16

O          1.03982        0.17695       -0.06893
C          2.25960        0.11447       -0.06823
C          3.08530       -1.16286       -0.07318
C          4.49039       -0.61061       -0.06711
C          5.59457       -1.30014        0.68769
C          5.60022       -1.29680       -0.81643
C          4.38273        0.84999       -0.06273
C          3.12711        1.31742       -0.06265
H          2.87141       -1.73356       -0.98109
H          2.86721       -1.74377        0.82716
H          5.37561       -2.23672        1.18904
H          6.33833       -0.69762        1.19771
H          5.38523       -2.23135       -1.32329
H          6.34781       -0.69213       -1.31820
H          5.25144        1.49833       -0.05952
H          2.76552        2.32896       -0.05959
