18

C          0.97887        0.01439        0.04562
C          2.50664       -0.08636        0.08504
C          3.01259        0.08209        1.50024
C          3.84405        1.05547        1.89637
C          3.00212       -1.38383       -0.53271
C          3.83295       -1.41351       -1.58835
C          2.56222       -2.72452        0.03247
C          2.18487       -3.87456        0.51728
H          0.64633        0.99132        0.41553
H          0.49855       -0.75309        0.66303
H          0.60639       -0.09496       -0.97932
H          2.88624        0.75031       -0.51921
H          2.66951       -0.64382        2.23618
H          4.22067        1.80290        1.20483
H          4.17094        1.11845        2.92935
H          4.19648       -0.50163       -2.04979
H          4.17484       -2.35264       -2.01305
H          1.87819       -4.81457        0.91280
