18

C          0.88444       -0.07458        0.04412
C          2.41215       -0.03315        0.03151
C          3.00896       -1.25102        0.75040
O          3.34323       -0.85383        2.09811
C          3.43840        0.51943        1.99718
C          2.96772        1.06475        0.87841
C          2.99670        2.46487        0.55748
C          2.56093        3.00749       -0.58583
H          0.52230       -0.92605       -0.54203
H          0.45611        0.83397       -0.39095
H          0.48830       -0.17690        1.06096
H          2.77363        0.00210       -1.00208
H          3.93681       -1.57615        0.26206
H          2.32840       -2.10846        0.78687
H          3.87175        1.00029        2.85905
H          3.42203        3.12686        1.31076
H          2.13178        2.41888       -1.38947
H          2.62911        4.07959       -0.74388
