16

O          1.05636        0.11400        0.10805
C          2.47790        0.12582       -0.00555
C          2.94351        0.86313       -1.24882
C          2.07577        1.37938       -2.14192
C          4.39923        0.96699       -1.43470
C          4.99295        2.02335       -2.01707
C          5.24479       -0.07535       -0.94065
C          5.96747       -0.93827       -0.52048
H          0.84818       -0.41806        0.89357
H          2.80846       -0.91787       -0.03068
H          2.87696        0.60925        0.89269
H          1.00271        1.29613       -1.99351
H          2.39351        1.88903       -3.04443
H          4.43090        2.87099       -2.39328
H          6.07203        2.07184       -2.13145
H          6.61642       -1.69700       -0.14831
