20

C          0.89867        0.09921       -0.00923
C          2.42903       -0.02967        0.00652
C          2.94949        0.19405       -1.42444
O          2.94485        1.03531        0.81186
C          2.89024       -1.33837        0.66160
C          3.61540       -2.27789        0.01775
C          2.51323       -1.48762        2.12607
O          2.92447       -2.73824        2.67089
H          0.59566        1.04701       -0.47132
H          0.48030        0.12605        1.00261
H          0.42861       -0.71900       -0.56402
H          2.62022        1.16510       -1.81375
H          2.59434       -0.57898       -2.11463
H          4.04533        0.21814       -1.44820
H          2.70623        1.87618        0.38696
H          3.92001       -2.18228       -1.01790
H          3.97237       -3.17155        0.52095
H          1.42948       -1.42837        2.25887
H          2.97837       -0.69982        2.72573
H          2.43812       -3.42279        2.18255
