20

C          2.16621       -0.46738        1.81112
O          1.82194        0.22156        0.61010
C          2.90052        1.02464        0.08001
C          3.99860        0.22711       -0.55829
C          2.51293        2.30511       -0.60857
C          3.08619        2.36064        0.77921
C          4.43989        2.84724        1.04674
C          4.89749        4.08181        0.81378
H          1.45964       -0.18773        2.59693
H          3.17945       -0.23225        2.15606
H          2.09532       -1.54254        1.62862
H          3.58191       -0.40736       -1.34846
H          4.48755       -0.42213        0.17394
H          4.76702        0.86155       -1.01117
H          1.45603        2.50563       -0.73665
H          3.12190        2.65974       -1.43434
H          2.37605        2.61227        1.56460
H          5.11468        2.13755        1.52322
H          4.26904        4.84110        0.35980
H          5.91380        4.35532        1.08030
