22

C          6.84504       -4.15795       -0.06016
C          6.34923       -2.72131       -0.03469
C          5.92394       -1.48896       -0.01284
C          5.42813       -0.05233        0.01263
C          5.98107        0.74249       -1.20391
C          5.49501        0.12909       -2.53318
C          5.47408        2.19258       -1.12474
C          7.52274        0.76712       -1.19626
H          6.56010       -4.66757        0.86445
H          7.93435       -4.17492       -0.15476
H          6.40588       -4.68910       -0.90920
H          5.74931        0.41288        0.95221
H          4.33173       -0.05672        0.00218
H          4.40064        0.11344       -2.58316
H          5.85079       -0.89825       -2.66491
H          5.85924        0.70715       -3.39035
H          4.38008        2.23192       -1.16094
H          5.85618        2.79035       -1.95973
H          5.79829        2.67402       -0.19569
H          7.94985       -0.23570       -1.31295
H          7.90510        1.18853       -0.25864
H          7.91163        1.37711       -2.01898
