18

C          1.06547        0.01173       -0.07387
C          2.54097       -0.16534        0.07265
C          3.16232       -0.57798        1.18090
O          4.53840       -0.76687        1.21428
C          4.82716       -1.33153        2.51294
C          3.53500       -1.34224        3.24854
C          3.40387       -1.80785        4.64999
C          2.57279       -0.89764        2.44139
H          0.82232        0.25844       -1.11252
H          0.70136        0.82709        0.55821
H          0.53219       -0.91112        0.17673
H          3.14515        0.03687       -0.80797
H          5.58063       -0.70996        3.00629
H          5.21843       -2.34456        2.37061
H          4.33498       -2.26562        4.99788
H          2.61288       -2.55935        4.73545
H          3.17023       -0.97092        5.31488
H          1.52846       -0.79208        2.68899
