16

O          1.13347        0.18704       -0.08125
C          2.35211        0.09011       -0.01916
C          3.11198       -0.66956       -1.03191
C          4.44504       -0.77512       -0.94832
C          5.17912       -1.53989       -1.98912
C          6.70795       -1.61171       -1.84497
O          6.68597       -3.04799       -2.05906
C          5.25819       -3.06223       -1.79442
H          2.94104        0.56001        0.78694
H          2.52452       -1.11933       -1.82525
H          5.00736       -0.31197       -0.14212
H          4.87836       -1.25470       -3.00609
H          7.12849       -1.37459       -0.86169
H          7.27416       -1.09137       -2.62217
H          5.05408       -3.44468       -0.78871
H          4.71087       -3.65484       -2.53284
