18

C          3.31070       -0.54331       -1.09230
O          2.75890       -0.07391        0.12312
C          3.22093        1.22819        0.52434
C          4.57051        1.42622        0.97964
C          3.41031        1.32635        2.03226
C          2.14186        2.06941        2.33597
O          1.89180        3.00045        1.27883
C          2.38888        2.39638        0.08090
H          2.80546       -1.47937       -1.35714
H          4.37595       -0.74949       -0.96596
H          3.15637        0.18159       -1.89903
H          5.04468        2.39221        0.83370
H          5.26623        0.59664        0.95832
H          4.03024        1.71218        2.84229
H          2.17421        2.60975        3.28338
H          1.30107        1.36164        2.38651
H          2.98343        3.14712       -0.45074
H          1.54758        2.09955       -0.55237
