18

C          1.08938        0.01696       -0.00865
C          2.60404        0.04813        0.12713
O          3.05010       -1.13608        0.82245
C          3.37012       -0.76323        2.18633
C          4.62154       -1.53013        2.63228
O          5.73913       -1.26241        1.78282
C          3.52723        0.71723        2.13574
C          3.08326        1.17771        0.96694
H          0.78094       -0.84626       -0.60801
H          0.71088        0.92648       -0.48575
H          0.60189       -0.09342        0.96705
H          3.07900        0.05879       -0.85902
H          2.52213       -1.03367        2.82551
H          4.43654       -2.60812        2.58252
H          4.89993       -1.27025        3.65833
H          5.38041       -1.27139        0.87510
H          3.92278        1.31810        2.94119
H          3.06354        2.21432        0.66480
