16

C          1.03288       -0.06311       -0.11570
C          2.52191        0.08185       -0.10606
C          3.47188       -0.64705       -1.16762
C          4.57589       -0.26334       -0.07805
O          4.54201        1.18725        0.04771
C          3.12714        1.49114        0.01260
C          3.38721       -0.83763        0.90888
O          3.21386       -1.60053        1.81954
H          0.58687        0.51270       -0.93293
H          0.59743        0.29411        0.82312
H          0.73558       -1.10876       -0.24436
H          3.57602       -0.14624       -2.13473
H          3.29796       -1.71682       -1.33225
H          5.55547       -0.73061       -0.09769
H          2.91140        2.11654       -0.85849
H          2.84177        1.99711        0.93891
