21

C          1.57577       -0.08329       -1.10283
C          0.92125        1.05490       -0.36754
N          0.69439       -0.32744        0.03764
C          1.40702       -0.73295        1.24936
C          0.86700       -0.08187        2.52450
C          1.39925       -1.00378        3.61030
C          1.18759       -2.39881        3.03513
C          1.21051       -2.23449        1.51286
H          2.64478       -0.21789       -0.98948
H          1.17882       -0.36039       -2.07161
H          0.07873        1.54679       -0.83946
H          1.53295        1.68876        0.26096
H          2.48718       -0.53213        1.19308
H         -0.23019       -0.07413        2.53833
H          1.22033        0.94594        2.65301
H          0.88858       -0.86544        4.56676
H          2.46952       -0.82449        3.76729
H          0.21251       -2.78842        3.34656
H          1.94863       -3.10220        3.38565
H          0.26480       -2.60261        1.09794
H          2.01300       -2.82300        1.05457
