18

C          1.40735       -0.94434       -0.39579
C          2.49005        0.05562       -0.01760
O          1.96648        1.37967       -0.12416
C          2.99154       -0.15500        1.37627
O          3.64432       -1.41030        1.60728
C          4.47652       -0.23972        1.65092
C          4.98341        0.30916        2.91049
C          5.29253        1.59337        3.13253
H          1.02462       -0.73207       -1.40048
H          0.55607       -0.88318        0.29046
H          1.78983       -1.96922       -0.37713
H          3.31092       -0.01928       -0.73916
H          1.15962        1.42282        0.41650
H          2.31794        0.19954        2.14450
H          5.16071       -0.11838        0.81627
H          5.11882       -0.40402        3.72159
H          5.17839        2.34302        2.35514
H          5.66855        1.91805        4.09721
