22

C          2.85859        1.21301       -0.90940
C          2.44754        0.03086       -0.03092
C          0.92021       -0.03096        0.06899
C          2.98523       -1.31262       -0.55921
C          4.51042       -1.42350       -0.64542
C          5.18017       -1.28548        0.68570
C          6.68209       -1.20815        0.77788
O          5.85564       -0.04043        0.89458
H          2.42801        2.14543       -0.52778
H          2.51436        1.08013       -1.94025
H          3.94465        1.34247       -0.92500
H          2.83865        0.20264        0.97930
H          0.46524       -0.22882       -0.90785
H          0.51453        0.91351        0.44621
H          0.60809       -0.82511        0.75553
H          2.57093       -1.50121       -1.55825
H          2.61350       -2.11930        0.08624
H          4.90719       -0.69729       -1.36456
H          4.75662       -2.41403       -1.04677
H          4.64189       -1.73187        1.51050
H          7.26784       -1.32344       -0.12509
H          7.16000       -1.57269        1.67868
