20

N          1.09930       -0.03272       -0.05927
C          2.55903        0.07617       -0.00700
C          2.99422        1.02314        1.13259
C          4.48384        1.23447        1.18203
C          5.08345        2.13590        2.23382
N          5.27522        0.69282        2.28517
C          3.12271       -1.30887        0.14524
C          3.97404       -1.87484       -0.72142
H          0.70038        0.87404       -0.29354
H          0.73927       -0.27163        0.86272
H          2.89160        0.50295       -0.96182
H          2.62250        0.65518        2.09849
H          2.52393        2.00259        0.97282
H          4.95534        1.24394        0.20548
H          4.44540        2.57091        2.99197
H          5.95866        2.71697        1.96833
H          4.68290        0.26570        2.99932
H          2.82072       -1.87817        1.02115
H          4.31152       -1.35436       -1.61227
H          4.35284       -2.87781       -0.55393
