19

N          1.02746        0.07385        0.00963
C          2.49312        0.00218        0.05283
C          3.03172       -1.43069       -0.16054
C          2.61154       -2.36195        0.90175
C          2.26397       -3.12585        1.75957
C          3.00941        0.92541       -1.02597
C          2.72374        2.40907       -0.99664
C          4.11008        1.90983       -0.70826
H          0.65366       -0.52145        0.74949
H          0.69461       -0.32908       -0.86305
H          2.81527        0.36444        1.03749
H          4.12769       -1.40339       -0.20382
H          2.69675       -1.81755       -1.13163
H          1.95431       -3.80922        2.51713
H          3.01231        0.46033       -2.00660
H          2.13163        2.79985       -0.17688
H          2.54658        2.90516       -1.94423
H          4.46359        1.99599        0.31326
H          4.87646        2.07520       -1.45635
