19

N          0.65105       -0.74378        0.44761
C          2.06338       -0.44435        0.67135
C          2.92321       -0.82919       -0.54275
C          4.36424       -0.45233       -0.33367
C          5.48789       -1.03874       -0.77723
C          5.64712       -2.22563       -1.66261
N          4.62217       -2.90431       -2.23850
N          6.83028       -2.66847       -1.95994
H          0.11666       -0.46842        1.27240
H          0.52678       -1.75212        0.35908
H          2.40872       -0.97583        1.56447
H          2.15797        0.62902        0.87220
H          2.55254       -0.30051       -1.42973
H          2.81132       -1.90432       -0.71653
H          4.51009        0.44023        0.27616
H          6.43131       -0.59098       -0.47345
H          3.85398       -2.33452       -2.56818
H          4.97339       -3.52409       -2.96124
H          7.55840       -2.11317       -1.50311
