20

C          2.77171        1.28835       -0.87065
C          2.36403        0.05740       -0.06843
O          0.93868       -0.00768       -0.01038
C          2.94273       -1.28019       -0.58581
C          2.48863       -1.63133       -2.00787
C          4.44867       -1.28785       -0.50720
C          5.16691       -1.30654        0.81862
O          5.00908       -2.49311        0.02934
H          2.32845        2.18679       -0.42712
H          2.40309        1.24020       -1.89975
H          3.85758        1.41757       -0.88856
H          2.69971        0.20508        0.96459
H          0.59288        0.02553       -0.91836
H          2.54643       -2.07248        0.06426
H          2.82917       -0.89015       -2.73816
H          1.39889       -1.70399       -2.07200
H          2.90327       -2.59826       -2.31492
H          4.94466       -0.83339       -1.35495
H          4.59174       -1.23061        1.73288
H          6.15489       -0.86546        0.86893
