18

C          1.02134        0.04764        0.00333
C          2.55304        0.01890        0.00421
C          3.09864        0.05952        1.42762
C          3.09778       -1.17805       -0.79557
C          3.49291       -0.59777       -2.11956
C          3.50502        0.73680       -2.15549
C          3.05571        1.18227       -0.82713
O          3.05678        2.35756       -0.49483
H          0.61103       -0.81569        0.53811
H          0.61843        0.03633       -1.01508
H          0.64514        0.95684        0.48758
H          2.78329       -0.82337        1.99445
H          2.74443        0.94836        1.96219
H          4.19381        0.09473        1.43604
H          2.34799       -1.96585       -0.91978
H          3.98157       -1.62444       -0.32464
H          3.77707       -1.21889       -2.95962
H          3.77077        1.40091       -2.95881
