15

N          0.94855       -0.19056       -0.19389
C          2.38986       -0.04670       -0.02976
C          2.85046        1.33600       -0.38177
C          2.35436        2.46214        0.27282
C          2.83458        3.70390       -0.09509
N          3.76710        3.86884       -1.05494
N          4.26207        2.77735       -1.69619
C          3.80976        1.54999       -1.36012
H          0.68426       -1.15650       -0.00635
H          0.70142       -0.01277       -1.16693
H          2.89563       -0.79271       -0.65354
H          2.66399       -0.25976        1.00960
H          1.60171        2.37095        1.04907
H          2.48281        4.61526        0.37438
H          4.25716        0.73586       -1.91990
