16

O          1.04600       -0.16454       -0.22082
C          2.39290        0.27192        0.07403
C          3.61092       -0.47918       -0.63146
C          4.36685        0.88372       -0.28710
C          2.99891        1.41951       -0.87171
O          2.60896        2.77015       -0.63246
C          2.93904        0.87299       -2.26212
C          3.34588       -0.39762       -2.10207
H          0.98295       -1.05089        0.17585
H          2.49515        0.44278        1.15407
H          3.98627       -1.41280       -0.21761
H          5.26977        1.09513       -0.86949
H          4.57221        1.09192        0.76891
H          1.63580        2.72685       -0.61295
H          2.64016        1.38059       -3.16380
H          3.46072       -1.17186       -2.84349
