14

C          1.19239       -0.59959        0.28949
C          2.39040       -0.68111        0.29332
C          3.84157       -0.71804        0.24699
C          4.48588        0.58584       -0.27745
O          5.45575        0.58085        0.80869
C          4.59265       -0.33587        1.54531
C          4.33392       -1.94880       -0.35835
C          4.80263       -2.96017       -0.80390
H          0.13112       -0.49476        0.25550
H          4.95633        0.53782       -1.26370
H          3.86443        1.48849       -0.22191
H          4.02103        0.20262        2.30864
H          5.17019       -1.13276        2.02637
H          5.25456       -3.85528       -1.16684
