16

C          0.95768       -0.09979       -0.01329
C          2.46122       -0.03861       -0.01400
C          3.08650        1.15121       -0.01576
C          4.49225        1.45138       -0.01674
C          5.51221        0.59052       -0.01630
C          5.43420       -0.84135       -0.01464
C          4.34014       -1.61035       -0.01303
O          3.01339       -1.29872       -0.01258
H          0.49452        0.89237       -0.01265
H          0.60378       -0.63403        0.87467
H          0.60298       -0.63336       -0.90134
H          2.46688        2.04804       -0.01669
H          4.72894        2.51461       -0.01807
H          6.52282        0.99567       -0.01726
H          6.39837       -1.34705       -0.01466
H          4.42731       -2.69189       -0.01179
