16

C          0.91383        0.01922        0.02693
C          2.43340        0.03303        0.12238
O          2.85708       -1.17999        0.78823
C          3.26272       -0.83306        2.12481
C          3.43598        0.63814        2.11628
C          2.96502        1.13616        0.97430
C          2.99996        2.50577        0.62318
C          3.03899        3.66643        0.31927
H          0.58339       -0.83252       -0.57760
H          0.52706        0.93776       -0.42436
H          0.45407       -0.10677        1.01435
H          2.88308        0.04146       -0.87646
H          4.19345       -1.35783        2.35498
H          2.48253       -1.14406        2.82615
H          3.87788        1.20295        2.92295
H          3.07889        4.69581        0.04872
