18

O          1.06509       -0.01497        0.04471
C          2.48570       -0.02361        0.08796
C          3.03627        1.05877        0.99553
O          4.33750        0.61155        1.37759
C          4.27418       -0.82098        1.47796
C          3.02664       -1.30093        0.72789
C          3.34374       -2.36978       -0.29144
C          2.80808       -3.59702       -0.28780
H          0.79077        0.80696       -0.39699
H          2.87065        0.10245       -0.93134
H          2.42327        1.19652        1.89382
H          3.11045        2.02476        0.48751
H          4.20627       -1.07990        2.54080
H          5.21081       -1.23541        1.09161
H          2.30140       -1.69418        1.45346
H          4.05634       -2.11388       -1.07419
H          2.08834       -3.90465        0.46475
H          3.07633       -4.32246       -1.05000
