20

C          0.82347        0.41840        0.85221
O          2.20079        0.76655        0.73690
C          2.53870        1.03024       -0.61996
C          3.93202        1.58584       -0.69415
C          4.18917        2.81985       -1.16359
C          5.52241        3.48603       -1.39257
C          6.70571        2.59273       -1.76760
O          6.47302        1.91575       -2.99845
H          0.60115        0.19903        1.89958
H          0.59953       -0.46963        0.25201
H          0.19126        1.25328        0.53141
H          1.81870        1.73745       -1.04844
H          2.49160        0.09757       -1.19274
H          4.73201        0.92535       -0.37097
H          3.34012        3.44809       -1.43310
H          5.37410        4.19362       -2.21939
H          5.77347        4.08012       -0.50666
H          6.93532        1.85703       -0.99174
H          7.59474        3.21645       -1.91146
H          5.65117        1.40493       -2.88778
