18

C          1.38337        0.50610        0.50182
C          2.69904       -0.05244        0.05354
C          3.14392       -1.25406        0.45593
O          3.35366        0.73850       -0.87837
C          4.72463        0.82080       -0.86681
C          5.41923        1.20950       -1.94158
C          6.90356        1.32096       -1.98417
O          7.39583        0.41853       -2.96153
H          0.84920       -0.18026        1.16754
H          0.73951        0.70113       -0.36249
H          1.53444        1.44712        1.04046
H          2.57830       -1.85845        1.15701
H          4.06888       -1.67682        0.07866
H          5.17916        0.56206        0.08046
H          4.88506        1.46394       -2.85363
H          7.37157        1.08350       -1.02370
H          7.19927        2.33458       -2.26957
H          7.07134       -0.46544       -2.71850
