16

C          2.64142        1.51254       -0.64985
C          2.53603        0.16611        0.01798
O          1.78266       -0.00201        0.98151
C          3.33790       -0.98766       -0.56217
C          4.82535       -0.76755       -0.47592
C          5.55215       -1.20241        0.56633
C          5.51404       -0.16204       -1.56955
C          6.11745        0.33070       -2.48423
H          1.92451        2.20271       -0.19331
H          2.40138        1.41913       -1.71216
H          3.64463        1.92276       -0.51823
H          3.01734       -1.15002       -1.59812
H          3.05974       -1.89563       -0.01132
H          5.09118       -1.70332        1.41303
H          6.63123       -1.07537        0.60008
H          6.67591        0.75240       -3.28671
