18

N          0.95371        0.11462       -0.05183
C          2.41795        0.16856       -0.05203
C          3.02054       -0.75724        1.05341
N          4.42286       -0.56845        1.47118
C          5.38833       -0.31217        0.41766
C          4.90263        0.80710        1.32184
C          4.02299        1.83897        0.76347
C          2.87449        1.58535        0.11676
H          0.65472       -0.85668       -0.12415
H          0.60405        0.57928       -0.88816
H          2.76032       -0.18446       -1.03257
H          2.89095       -1.80244        0.74430
H          2.41775       -0.64457        1.96550
H          5.06986       -0.35614       -0.61499
H          6.38776       -0.69499        0.59019
H          5.57335        1.14390        2.10580
H          4.34203        2.87171        0.87994
H          2.28652        2.39688       -0.29763
