16

C          1.31758        0.29126        0.58049
C          2.61461       -0.06795       -0.07766
C          3.38094        1.06547       -0.73824
C          3.96745        0.40450        0.47097
C          4.84974       -0.75685        0.28517
C          4.27119       -1.84678       -0.24130
C          2.85942       -1.49629       -0.48845
O          2.01071       -2.24008       -0.94255
H          1.26205        1.35691        0.83054
H          1.17535       -0.28267        1.50038
H          0.48592        0.06878       -0.09684
H          3.02349        2.08381       -0.61959
H          3.82153        0.88770       -1.71233
H          3.99128        0.91522        1.42340
H          5.90091       -0.71465        0.54167
H          4.70065       -2.80275       -0.48272
