17

N          1.00710        0.02471        0.08800
C          2.48703        0.01547        0.05690
C          3.00920       -1.21194       -0.72553
C          3.29808       -0.66064       -2.08639
C          3.33196        0.67712       -2.07570
C          3.05406        1.24100       -0.71206
C          4.35592        1.72898       -0.09770
C          5.47265        2.14757        0.42931
H          0.67740       -0.83610        0.52324
H          0.65985        0.00156       -0.87213
H          2.83283       -0.01588        1.09659
H          2.27819       -2.02584       -0.76778
H          3.93000       -1.60162       -0.27728
H          3.49779       -1.27589       -2.95271
H          3.55159        1.29496       -2.93565
H          2.33679        2.06776       -0.75586
H          6.38561        2.49100        0.85820
