20

C          0.93078        0.01078        0.07136
C          2.45078        0.01078        0.07136
C          3.75463        0.01078        0.07136
C          5.27463        0.01078        0.07136
C          5.79929        0.54404        1.40462
C          5.79868       -1.37734       -0.24588
C          5.46330       -2.51036        0.68719
C          6.56234       -1.60982       -1.32831
H          0.55762        1.03834        0.09757
H          0.55777       -0.52575        0.94819
H          0.55770       -0.48040       -0.83163
H          5.59160        0.71240       -0.71204
H          5.46718       -0.06486        2.25303
H          5.43840        1.56414        1.58041
H          6.89430        0.56986        1.41339
H          4.74536       -2.21453        1.45807
H          6.36665       -2.86314        1.19632
H          5.01947       -3.34631        0.13550
H          6.82943       -0.81689       -2.02057
H          6.94367       -2.60281       -1.54789
