20

C          2.86866        0.25031        1.37183
C          2.48328        0.05645       -0.08942
C          3.08648       -1.21348       -0.72371
C          2.57903       -1.37798       -2.16084
C          4.60492       -1.23611       -0.69371
C          5.30794       -2.21635       -0.10520
C          5.38681       -0.10053       -1.33365
C          6.05751        0.87356       -1.88259
H          2.38595        1.14890        1.76951
H          3.94885        0.37549        1.49369
H          2.54836       -0.60269        1.97785
H          2.77719        0.94713       -0.65782
H          1.38887       -0.00095       -0.14938
H          2.70960       -2.07406       -0.15283
H          2.85412       -0.52342       -2.78921
H          1.48717       -1.46414       -2.17613
H          2.98954       -2.28307       -2.62240
H          4.81686       -3.05419        0.37816
H          6.39383       -2.20394       -0.09089
H          6.60582        1.66890       -2.33072
