21

C          1.28212        0.19932       -0.41826
N          2.47952       -0.13571        0.31460
C          3.09063        0.70914        1.22774
N          2.56576        1.45723        2.13130
C          1.13962        1.42256        2.38557
C          4.65740        0.70597        1.14892
C          5.33145        1.45120        2.29594
N          5.09832       -0.70855        1.10892
H          1.20961       -0.42204       -1.31669
H          1.28576        1.24724       -0.73330
H          0.38837        0.00248        0.18090
H          3.17398       -0.62847       -0.24985
H          0.94814        1.88690        3.35850
H          0.75411        0.40023        2.44557
H          0.58602        1.99677        1.63796
H          4.93743        1.17527        0.19830
H          5.03496        1.04831        3.27007
H          5.05664        2.51235        2.27768
H          6.42249        1.39427        2.22039
H          4.66050       -1.18173        1.90490
H          6.09811       -0.74228        1.30046
