18

C          2.23239       -0.01749       -0.14324
C          1.34573        1.19153        0.27513
C          0.03059        0.71576       -0.24929
N         -1.27673        1.11788        0.19519
C         -1.99390       -0.05999        0.04366
N         -1.33214       -1.19625       -0.03132
C          0.00944       -0.69578        0.33770
C          1.29430       -1.26279       -0.19580
H          3.06930       -0.15804        0.54731
H          2.64963        0.15561       -1.14347
H          1.68137        2.12969       -0.17461
H          1.34290        1.31340        1.36486
H          0.03960        0.70809       -1.35087
H         -1.67580        1.93393       -0.25085
H         -3.07679        0.05178       -0.11597
H          0.06353       -0.69439        1.43985
H          1.19536       -1.64263       -1.21848
H          1.67545       -2.07361        0.43403
