18

C          0.96987       -0.05100        0.06929
C          2.47015       -0.11919        0.02846
C          3.08294       -1.04834       -0.98513
O          3.85003       -0.31024       -1.92589
C          3.19118        0.62811        0.89320
C          4.68361        0.72729        0.94180
C          5.22843        0.29497        2.29334
C          5.69578       -0.07588        3.45270
H          0.50939       -0.66470       -0.71086
H          0.62720        0.97849       -0.08628
H          0.59394       -0.40608        1.03455
H          2.32425       -1.60687       -1.54294
H          3.73128       -1.78318       -0.49725
H          3.28537        0.41061       -2.24914
H          2.66570        1.26585        1.60418
H          4.97736        1.76824        0.76424
H          5.17785        0.12182        0.17726
H          6.07746       -0.38105        4.39948
