20

C          1.08841        2.52569        0.39222
O          2.49678        2.35672        0.33832
C          2.90294        1.11647        0.91408
C          4.40433        1.02680        0.83302
C          5.02122        0.06207        0.12581
C          5.18503        2.09776        1.55940
C          5.44897        1.73146        2.99379
C          5.01983        2.43964        4.04655
H          0.84380        3.50392       -0.03090
H          0.73554        2.49624        1.42756
H          0.58751        1.75429       -0.20024
H          2.42765        0.29433        0.36501
H          2.58031        1.06316        1.96032
H          4.46112       -0.69713       -0.41136
H          6.10398        0.01268        0.06259
H          4.66628        3.06141        1.48768
H          6.15420        2.25095        1.06730
H          6.05648        0.84519        3.16653
H          4.42238        3.33769        3.92276
H          5.26636        2.13468        5.05904
