16

O          1.36736        0.06586        1.17975
C          2.20664       -0.07346        0.30699
C          3.16654       -1.23386        0.18138
C          4.13349       -0.91715       -0.94524
C          5.31939        0.02602       -0.63425
C          4.75966        1.01362       -1.66922
C          3.41768        0.26579       -1.60737
O          2.40508        0.79383       -0.72870
H          2.58211       -2.12777       -0.05859
H          3.69420       -1.38118        1.12742
H          4.37811       -1.74749       -1.61472
H          6.30793       -0.37731       -0.87193
H          5.33601        0.42044        0.38784
H          4.73751        2.05839       -1.34739
H          5.24718        0.95413       -2.64869
H          2.98822        0.04444       -2.59047
