18

C          1.03350        0.30559        0.32416
C          2.46971        0.02343       -0.09267
C          2.85572        0.80647       -1.30489
C          3.23880        0.33593       -2.49090
C          3.54997        1.47473       -3.38094
O          4.95885        1.56714       -3.53156
C          2.97769        2.63956       -2.56990
O          2.86723        2.19665       -1.19554
H          0.76251       -0.30878        1.18910
H          0.33336        0.07790       -0.48673
H          0.90001        1.35587        0.60387
H          2.58166       -1.05065       -0.28329
H          3.14704        0.27231        0.73205
H          3.33433       -0.70287       -2.76548
H          3.08853        1.40176       -4.36881
H          5.33648        1.59553       -2.63374
H          1.96800        2.90188       -2.90915
H          3.61156        3.53115       -2.60030
