24

C          0.96972       -0.05977        0.13741
C          2.48959       -0.05642        0.11187
C          3.04331        1.28186       -0.37764
C          4.57298        1.27405       -0.39001
C          5.13978        2.61498       -0.86785
C          6.67244        2.61610       -0.88587
C          7.22756        3.94028       -1.39233
O          7.17846        2.38396        0.42620
H          0.59946       -1.02656        0.49265
H          0.55991        0.11445       -0.86268
H          0.58653        0.71717        0.80683
H          2.83995       -0.86464       -0.54041
H          2.86530       -0.26753        1.11987
H          2.68450        2.08847        0.27386
H          2.66653        1.49012       -1.38682
H          4.93035        0.47142       -1.04692
H          4.94022        1.05265        0.61895
H          4.77914        3.40559       -0.19757
H          4.76034        2.83683       -1.87262
H          7.03842        1.80530       -1.52514
H          6.88645        4.77416       -0.76901
H          6.92263        4.12935       -2.42612
H          8.32177        3.93910       -1.34434
H          6.84647        3.09234        1.00345
