16

O          0.89827       -0.18326        0.02612
C          2.32184       -0.09006        0.07488
C          2.80713        0.96460       -0.91450
C          2.33372        2.39985       -0.60566
O          3.69773        2.89456       -0.58610
C          4.20269        1.53612       -0.58268
C          2.64671        0.54119       -2.29972
C          2.51406        0.18004       -3.43680
H          0.64070       -0.94755        0.57047
H          2.74395       -1.07470       -0.15860
H          2.60062        0.16132        1.10364
H          1.85643        2.55250        0.36842
H          1.73473        2.89291       -1.37730
H          4.61214        1.28248        0.40112
H          4.98366        1.39436       -1.33689
H          2.39024       -0.14212       -4.44692
