18

C          0.87954       -0.05908        0.02929
C          2.37275       -0.11027        0.11613
C          3.08931       -0.77995        1.04225
C          2.40925       -1.53339        2.05311
C          1.83361       -2.16686        2.89462
C          4.60942       -0.74695        1.02761
C          5.20454       -0.14244        2.29546
O          5.12778       -2.06630        0.85617
H          0.57964        0.58160       -0.80658
H          0.44553        0.36576        0.94016
H          0.45982       -1.05385       -0.15004
H          2.89985        0.44945       -0.65509
H          1.30895       -2.72646        3.63407
H          4.96930       -0.16255        0.17255
H          4.93602       -0.72328        3.18498
H          4.87280        0.89092        2.43890
H          6.29874       -0.15263        2.24101
H          4.73408       -2.62131        1.55046
