17

N          0.96312        0.08991        0.27950
N          2.30199       -0.03840        0.15801
C          2.93356        0.86789       -0.54942
C          2.23222        2.04535       -1.23873
C          3.18723        3.02133       -1.85236
C          4.51780        2.87308       -1.78941
C          5.21205        1.73334       -1.11447
N          4.28959        0.71368       -0.68952
H          0.58868       -0.73321        0.75696
H          0.50018        0.11769       -0.62983
H          1.60689        2.56801       -0.50697
H          1.58355        1.64162       -2.02465
H          2.76031        3.88144       -2.35939
H          5.15543        3.62311       -2.24868
H          5.77372        2.11046       -0.25298
H          5.93134        1.28822       -1.81004
H          4.67014       -0.00868       -0.08885
