18

C          1.28290        0.00640        0.04267
C          2.78469        0.13104        0.07412
C          3.35519        1.34809        0.11419
C          4.75668        1.68607        0.06746
C          5.80928        0.85876        0.01249
C          5.81839       -0.63379        0.06373
O          4.72235       -1.15677        0.79397
C          3.51091       -1.18887        0.05444
H          0.78252        0.98066        0.03038
H          0.92687       -0.53696        0.92405
H          0.96800       -0.53750       -0.85421
H          2.70645        2.22411        0.13930
H          4.95594        2.75723        0.03674
H          6.79567        1.31118       -0.06753
H          5.88326       -1.06795       -0.94052
H          6.71982       -0.94531        0.60301
H          2.88930       -1.94119        0.55364
H          3.66824       -1.54175       -0.97177
