16

C          1.06927        0.10155        0.11868
C          2.40624        0.10472        0.04448
C          3.28548       -1.11572       -0.07804
C          4.59094       -0.56821       -0.57481
C          4.57162        0.77237       -0.58515
C          3.27588        1.33462       -0.09811
C          5.67456        1.62622       -1.03825
O          5.60853        2.84812       -1.01037
H          0.50862       -0.82792        0.14903
H          0.50421        1.02879        0.13459
H          2.87299       -1.83664       -0.79036
H          3.42875       -1.59686        0.89522
H          5.41740       -1.19345       -0.88054
H          2.84823        2.04248       -0.81502
H          3.41443        1.82250        0.87275
H          6.56828        1.09783       -1.41167
