18

C          0.74975       -0.01599       -0.06709
C          2.21884        0.24150        0.22346
C          3.15565       -0.53231       -0.70871
C          4.57939       -0.33489       -0.27075
C          5.58467        0.20915       -0.97049
O          5.46382        0.67421       -2.27650
C          6.60624        1.21610       -2.80307
O          7.69577        1.36217       -2.26636
H          0.12790        0.56518        0.62248
H          0.50017       -1.07329        0.06683
H          0.48871        0.27732       -1.08807
H          2.41907       -0.03398        1.26681
H          2.41771        1.31646        0.13393
H          3.00102       -0.21847       -1.74766
H          2.92573       -1.60403       -0.66008
H          4.80566       -0.66827        0.73879
H          6.57332        0.31814       -0.53895
H          6.39378        1.51803       -3.84255
