18

O          1.00257       -0.21017        0.15850
C          2.40098        0.06334        0.01241
C          2.72531        1.42550        0.62398
C          2.35114        2.60165       -0.27935
C          3.25086        2.77525       -1.47038
C          4.00535        1.83752       -2.05739
O          4.03307        0.49241       -1.80833
C          2.76395       -0.06820       -1.46775
H          0.78261       -0.13429        1.10323
H          2.93867       -0.70349        0.58271
H          3.79670        1.47322        0.85893
H          2.19057        1.53556        1.57571
H          2.43308        3.51503        0.32391
H          1.30832        2.53488       -0.60672
H          3.34167        3.79679       -1.83761
H          4.72900        2.07820       -2.82987
H          2.81382       -1.13716       -1.71185
H          1.97270        0.32548       -2.12185
