20

C          0.93522       -0.05318       -0.05594
C          2.46656       -0.06962       -0.08836
C          2.97806       -1.28725       -0.88285
C          3.25926       -0.71560       -2.24010
C          3.50444       -1.58147       -3.42280
C          3.29369        0.62274       -2.20770
C          3.02045        1.15437       -0.83995
O          4.24393        1.58917       -0.26862
H          0.55366       -0.93367        0.47183
H          0.50525       -0.05161       -1.06341
H          0.57077        0.83584        0.46904
H          2.83707       -0.11119        0.94283
H          2.24114       -2.09572       -0.91981
H          3.90597       -1.67642       -0.44785
H          3.51374       -2.63878       -3.13911
H          4.47149       -1.35113       -3.88044
H          2.71614       -1.44265       -4.16932
H          3.50779        1.26261       -3.05289
H          2.31917        1.99378       -0.85412
H          4.90618        0.89970       -0.44684
