16

C          0.96452       -0.05181        0.14943
C          2.48727       -0.05908        0.14765
C          3.06139        1.10246       -0.62399
C          3.80967        0.64832       -1.64252
C          3.79620       -0.79509       -1.63225
C          4.50007       -1.65481       -2.60095
O          5.17326       -1.20900       -3.52257
C          3.04709       -1.23771       -0.61054
H          0.58089        0.83929        0.65823
H          0.57310       -0.93193        0.67150
H          0.55370       -0.05793       -0.86726
H          2.86965       -0.05525        1.17457
H          2.89698        2.14284       -0.38329
H          4.34892        1.24168       -2.36648
H          4.37991       -2.73962       -2.44404
H          2.86219       -2.26940       -0.35166
