18

N          1.14439       -0.19878       -0.03977
C          2.55648        0.08616        0.00510
C          3.42976       -0.67166       -1.04003
N          4.54694       -0.40011        0.01064
C          3.39172       -0.78644        0.98767
C          4.57053        1.11928        0.09863
C          3.10471        1.43243        0.08946
C          2.43629        2.58399        0.15059
H          0.92316       -1.18909       -0.12694
H          0.67006        0.26531       -0.81226
H          3.58449       -0.18601       -2.01086
H          3.22124       -1.73562       -1.21539
H          3.51390       -0.41413        2.01171
H          3.17946       -1.86311        1.03363
H          5.09280        1.53343       -0.76899
H          5.05958        1.42989        1.02685
H          2.96112        3.53123        0.21849
H          1.35135        2.61078        0.14826
