21

C         -1.68959        0.13475        0.84011
C         -1.04539        1.33067        0.15307
C          0.09940        0.77089       -0.70759
C          1.48563        0.97419       -0.11196
N          1.64849       -0.13000        0.83702
C          1.05869       -1.28955        0.15633
C         -0.08134       -0.75413       -0.71648
C         -1.47775       -0.99666       -0.14846
H         -2.74908        0.30427        1.05352
H         -1.18743       -0.08315        1.78902
H         -0.71876        2.08800        0.87307
H         -1.78414        1.80666       -0.50376
H          0.04929        1.19773       -1.71539
H          1.60556        1.94670        0.37475
H          2.25234        0.89491       -0.89233
H          1.09732        0.07483        1.67067
H          0.73313       -2.04625        0.87698
H          1.82557       -1.75151       -0.47689
H          0.00191       -1.16992       -1.72683
H         -1.58961       -1.98182        0.31407
H         -2.21803       -0.92003       -0.95472
