18

C          1.08571        0.32984       -0.30613
O          2.36655       -0.21129       -0.01542
C          2.98582        0.40094        1.11853
C          4.30243       -0.34683        1.40005
C          5.32021        0.31066        0.45408
C          4.89295        1.74527        0.42970
O          3.88008        2.08976       -0.51480
C          3.45090        1.80352        0.82108
H          0.72086       -0.13748       -1.22469
H          1.13648        1.41067       -0.46893
H          0.38705        0.10442        0.50314
H          2.32077        0.34909        1.98634
H          4.23433       -1.42602        1.23598
H          4.61174       -0.16371        2.43700
H          5.25922       -0.12799       -0.54866
H          6.34173        0.19133        0.82506
H          5.59559        2.48183        0.77997
H          3.09020        2.58637        1.46712
