18

N          1.09363       -0.28348        0.73726
N          2.42572       -0.35966        0.95850
C          3.08506        0.71431        0.65014
C          4.59167        0.73654        0.72841
C          5.06532        1.77667        1.70191
C          5.84833        2.81043        1.34903
C          6.36036        3.77217        2.29497
C          7.15683        4.78678        1.93694
H          0.61379       -1.03974        1.23037
H          0.67183        0.59522        1.03520
H          2.58913        1.62943        0.27860
H          4.96225        0.93936       -0.28243
H          4.96083       -0.24599        1.03771
H          4.77580        1.63411        2.74173
H          6.14611        2.93119        0.31030
H          6.09575        3.65301        3.34352
H          7.46150        4.95024        0.90800
H          7.53101        5.48295        2.68111
