16

C          1.21897       -0.05015        0.01163
O          2.63611        0.00021       -0.08867
C          3.19200        0.58635       -1.20256
C          2.51438        1.12654       -2.22851
C          4.64707        0.58387       -1.19824
C          5.39864        0.06516       -0.21500
C          6.87083        0.10362       -0.28765
O          7.56762       -0.36692        0.60265
H          0.96711       -0.54577        0.95390
H          0.78904       -0.63979       -0.80440
H          0.79184        0.95752        0.03653
H          1.43192        1.14846       -2.26949
H          3.02424        1.57307       -3.07651
H          5.13037        1.03892       -2.06087
H          4.98085       -0.40145        0.66929
H          7.30703        0.57676       -1.18266
