19

N          0.68735        0.10291        0.00109
C          2.13942        0.23658        0.12589
C          3.07744       -0.71023       -0.56968
N          2.68678       -1.57942       -1.70531
C          2.84686       -0.72570       -2.90515
C          2.54562        0.72211       -2.44471
N          3.22395        1.73930       -3.23491
C          2.99543        0.73264       -1.01152
H          0.33517       -0.57931        0.67230
H          0.40720       -0.23444       -0.91564
H          2.45104        0.56756        1.11637
H          3.96618       -1.02394       -0.03022
H          1.70428       -1.83563       -1.61363
H          2.19793       -1.04483       -3.72731
H          3.88657       -0.81709       -3.24487
H          1.46708        0.90391       -2.50677
H          4.23270        1.61552       -3.16360
H          3.01270        2.65640       -2.84401
H          3.84362        1.36512       -0.79129
