20

C          0.94305       -0.06959        0.06273
C          2.47412       -0.04904        0.04993
C          2.98001        1.12692       -0.79025
O          2.93188        0.13310        1.39637
C          3.03769       -1.38442       -0.47528
O          2.59815       -1.60911       -1.81807
C          3.04996       -2.78615       -2.34227
C          2.72114       -3.16251       -3.57794
H          0.54306        0.85917        0.48518
H          0.57251       -0.88240        0.69763
H          0.52619       -0.19608       -0.94166
H          2.60839        2.07878       -0.39366
H          2.66873        1.04802       -1.83670
H          4.07393        1.18423       -0.75549
H          2.60024        0.99333        1.70807
H          2.70432       -2.20592        0.17364
H          4.13547       -1.36235       -0.43749
H          3.68339       -3.38459       -1.70054
H          2.08374       -2.53831       -4.19607
H          3.08066       -4.09665       -3.99354
