22

C          3.02946        0.27220        1.53139
C          2.58874       -0.00444        0.09319
C          1.06115       -0.06971        0.02698
C          3.11471        1.04833       -0.90069
C          4.63638        1.08936       -0.93097
C          5.39066       -0.15564       -1.42966
C          6.15661        0.84673       -2.29008
O          5.12367        1.84739       -2.07887
H          2.62208       -0.48367        2.21114
H          2.68517        1.25477        1.87112
H          4.11924        0.23748        1.63156
H          2.97809       -0.98909       -0.19519
H          0.60925        0.88409        0.32144
H          0.67677       -0.84681        0.69681
H          0.72335       -0.30729       -0.98668
H          2.72773        2.04051       -0.63725
H          2.73161        0.81769       -1.90365
H          5.06007        1.52057       -0.01384
H          4.78951       -0.86734       -2.00309
H          5.97791       -0.68161       -0.67528
H          6.26369        0.57588       -3.34327
H          7.11723        1.17999       -1.88537
