14

C          1.44720        0.53150        0.87938
C          2.32564       -0.03941        0.04444
C          3.10209       -1.28021        0.35894
O          4.49375       -0.95274        0.32424
C          5.17372       -1.16977        1.47778
O          4.72444       -1.61189        2.52380
C          6.57261       -0.83291        1.36275
C          7.74344       -0.56950        1.30472
H          0.90960        1.43083        0.59372
H          1.24969        0.12335        1.86668
H          2.49579        0.40619       -0.93257
H          2.91834       -2.02489       -0.42331
H          2.78078       -1.72434        1.30743
H          8.78450       -0.34605        1.27824
