16

C          1.36788       -0.17063       -0.17468
C          2.78643        0.16935        0.16443
C          3.70655       -0.92598        0.66411
C          3.89659       -0.36365       -0.71351
O          4.89008        0.67700       -0.88597
C          4.37526        1.92984       -0.39008
C          3.15583        1.58298        0.42972
O          2.51859        2.31908        1.16563
H          1.25868       -1.20977       -0.50127
H          1.00527        0.47556       -0.98141
H          0.72523       -0.01910        0.69760
H          3.31437       -1.93393        0.74622
H          4.43802       -0.68550        1.42656
H          3.65159       -0.98605       -1.56564
H          4.08585        2.55280       -1.24039
H          5.13322        2.41487        0.22631
