20

N          1.19524       -0.16038       -0.14822
C          2.58642        0.20063       -0.08545
C          3.48715       -0.52087       -1.12807
C          4.50940       -0.12425       -0.02402
N          5.70677       -0.92176       -0.01762
C          3.40668       -0.60963        0.95950
C          4.55757        1.39167        0.03905
C          3.03432        1.64857       -0.00262
H          1.02203       -1.16041       -0.24414
H          0.69081        0.28375       -0.91479
H          3.60004       -0.03133       -2.10054
H          3.31117       -1.59218       -1.28759
H          5.54411       -1.92802       -0.01634
H          6.31733       -0.73777        0.77788
H          3.44336       -0.20495        1.97586
H          3.22276       -1.69007        1.01342
H          5.06668        1.83853       -0.82052
H          5.00551        1.76632        0.96467
H          2.74725        2.23506       -0.88101
H          2.68412        2.15239        0.90372
