18

C          3.54973       -0.11272       -0.99582
C          2.41193       -0.06116        0.01063
C          2.83563        0.58632        1.27891
C          2.85719        1.89680        1.72621
C          2.42803        3.11679        1.00130
C          3.38361        1.83837        3.04794
C          3.64540        0.51519        3.30895
O          3.31617       -0.25099        2.24071
H          3.22497       -0.61936       -1.91014
H          4.41144       -0.65622       -0.59322
H          3.88510        0.89433       -1.26661
H          2.05973       -1.07913        0.21439
H          1.56513        0.48436       -0.42095
H          2.15355        2.89765       -0.03496
H          3.23607        3.85513        0.98570
H          1.56020        3.56596        1.49481
H          3.55179        2.66324        3.72614
H          4.04453       -0.01674        4.16084
