18

C          1.03134        0.14076        0.00607
C          2.52331        0.05791       -0.06656
C          3.23174       -1.05958       -0.32176
C          2.63253       -2.41367       -0.57837
C          4.73742       -1.02614       -0.34618
O          5.38189       -2.07456       -0.24768
C          5.45868        0.31744       -0.47832
O          6.86875        0.17448       -0.58080
H          0.73375        1.16383        0.26172
H          0.63666       -0.51923        0.78449
H          0.57672       -0.10645       -0.95798
H          3.02097        1.00327        0.13371
H          1.53874       -2.40118       -0.56662
H          2.95852       -3.13262        0.18025
H          2.94076       -2.78268       -1.56284
H          5.25527        0.93100        0.40264
H          5.10955        0.82410       -1.38246
H          7.09184       -0.64882       -0.10289
