24

C          0.87126       -0.07716        0.11808
C          2.39208        0.01249        0.13158
C          2.95255        1.29594       -0.51687
C          2.47170        2.55306        0.21907
C          4.49955        1.28970       -0.54946
C          5.08952        0.17064       -1.41612
C          6.59210        0.18891       -1.41053
C          7.34307       -0.82493       -0.96131
H          0.55662       -1.06111        0.48082
H          0.47965        0.05137       -0.89541
H          0.41763        0.67386        0.76937
H          2.76116       -0.86632       -0.40502
H          2.75019       -0.07198        1.16318
H          2.58862        1.35466       -1.55134
H          2.78536        2.54189        1.26890
H          1.38198        2.64483        0.18831
H          2.88182        3.45685       -0.24543
H          4.88742        1.21096        0.47480
H          4.85064        2.25529       -0.94009
H          4.74205        0.28404       -2.44940
H          4.74265       -0.80721       -1.06890
H          7.08070        1.07396       -1.81221
H          6.89920       -1.73081       -0.55834
H          8.42786       -0.77038       -0.98917
