18

C          0.91891        0.12393       -0.03652
C          2.44750        0.06270       -0.04372
C          2.91670       -1.22266       -0.67897
C          3.67368       -2.13706       -0.05719
C          3.01552        1.24962       -0.78390
C          3.85222        2.13420       -0.22087
C          4.37432        3.27845       -0.99348
O          5.12997        4.09698       -0.48471
H          0.49834       -0.71226        0.53367
H          0.50373        0.07919       -1.05039
H          0.56721        1.05230        0.42794
H          2.78080        0.09315        1.00245
H          2.61235       -1.41232       -1.70704
H          4.00715       -2.00345        0.96740
H          3.97893       -3.04569       -0.56735
H          2.71197        1.36566       -1.82289
H          4.18657        2.06105        0.80739
H          4.04489        3.35402       -2.04273
