20

C          0.86160        0.13097        0.32663
C          2.34721        0.12601        0.20342
C          3.01146       -0.74698       -0.83045
C          4.38029       -1.32503       -0.65820
C          5.29701       -0.64572       -1.67081
C          5.37624        0.86495       -1.42726
O          4.24753        1.41648       -0.74091
C          2.99513        0.75126       -1.00327
H          0.53164       -0.69503        0.96406
H          0.36866        0.02630       -0.64595
H          0.52332        1.06855        0.77837
H          2.83194        0.25510        1.16423
H          2.39568       -1.32935       -1.50481
H          4.35463       -2.40562       -0.83460
H          4.75584       -1.16801        0.36001
H          4.89379       -0.81310       -2.67902
H          6.30031       -1.08507       -1.66300
H          5.50865        1.40108       -2.37349
H          6.25224        1.08217       -0.80729
H          2.35994        1.16478       -1.77927
