19

N          1.07422       -0.00805       -0.24447
C          2.51249        0.04633       -0.02695
C          2.92699       -0.88939        1.07355
C          3.51800       -0.44526        2.19765
C          3.93753       -1.33590        3.24907
C          3.72881       -2.65554        3.17684
C          3.05541       -3.30697        2.00543
C          2.68603       -2.36696        0.84084
H          0.81562        0.69214       -0.93636
H          0.60480        0.25866        0.61969
H          2.79745        1.07945        0.20431
H          3.03142       -0.22702       -0.95258
H          3.70491        0.61387        2.35375
H          4.42484       -0.89935        4.11610
H          4.04584       -3.29759        3.99357
H          2.14508       -3.80263        2.36482
H          3.70626       -4.10369        1.62463
H          1.62911       -2.53316        0.59785
H          3.25477       -2.67271       -0.04720
