18

C          1.33904       -0.51860       -0.33451
C          2.74467       -0.02362       -0.48504
C          3.25814        0.93580        0.55435
O          3.26258        0.27951        1.82661
C          3.67781        1.00656        2.90565
C          4.13121        2.26527        2.95194
C          3.72048       -0.77786       -1.36596
O          3.04295        0.39380       -1.83252
H          1.10594       -0.73815        0.71202
H          1.17230       -1.43746       -0.90635
H          0.62832        0.23517       -0.68906
H          4.27769        1.25432        0.30591
H          2.60242        1.81421        0.58733
H          3.59361        0.39856        3.79835
H          4.42225        2.69938        3.90381
H          4.23049        2.89464        2.07680
H          4.78134       -0.69595       -1.16345
H          3.42266       -1.72773       -1.79184
