20

C          0.97845        0.07270       -0.02084
C          2.47145       -0.00347       -0.14087
C          3.10527       -1.14172       -0.48063
C          4.58711       -1.39156       -0.53433
C          5.45332       -0.39822        0.23662
C          5.48667        0.99693       -0.37916
C          4.12586        1.52753       -0.81020
O          3.09900        1.19660        0.12496
H          0.49408       -0.88227       -0.24930
H          0.58310        0.82335       -0.71288
H          0.69645        0.35810        0.99768
H          2.49920       -2.01833       -0.70425
H          4.90556       -1.44352       -1.58217
H          4.76445       -2.38543       -0.10439
H          6.48038       -0.78005        0.28980
H          5.10108       -0.33115        1.27451
H          6.16094        1.01134       -1.24400
H          5.92146        1.67932        0.36143
H          3.86406        1.19118       -1.82262
H          4.17483        2.62146       -0.86260
