20

C          3.07988        1.24383       -0.20850
C          2.20036        0.00040       -0.19258
C          3.01309       -1.22011        0.12743
O          3.66129       -1.18101        1.40785
C          2.59727       -2.60497       -0.29650
C          3.73161       -1.90367       -1.00794
C          5.16026       -2.29645       -0.87074
O          5.34687       -3.57929       -1.45208
H          2.50869        2.11731       -0.53304
H          3.93071        1.11655       -0.88674
H          3.48141        1.45212        0.78929
H          1.71271       -0.10566       -1.16909
H          1.40514        0.12059        0.55144
H          3.00837       -1.15059        2.12824
H          1.66122       -2.72285       -0.83039
H          2.83565       -3.43454        0.35910
H          3.52446       -1.58452       -2.02424
H          5.51199       -2.32744        0.16386
H          5.78877       -1.58414       -1.41624
H          4.86588       -4.20267       -0.88236
