19

C         -1.39375       -1.08295       -0.43796
C         -1.02668       -0.27325        0.82705
C         -0.89783        1.12186        0.24882
N          0.08877        0.85233       -0.82261
C          1.44435        1.07447       -0.26113
C          1.59496        0.04251        0.86174
C          0.41347       -0.88810        0.64008
C          0.03676       -0.64543       -0.85084
H         -2.22069       -0.71345       -1.05243
H         -1.52973       -2.16047       -0.28766
H         -1.58093       -0.45245        1.74590
H         -0.56330        1.86240        0.98449
H         -1.84378        1.47737       -0.17595
H          1.58739        2.10039        0.09588
H          2.19377        0.89952       -1.04303
H          1.54970        0.50496        1.85311
H          2.54561       -0.49199        0.76576
H          0.53775       -1.92418        0.96979
H          0.57123       -1.17141       -1.64192
