18

C          0.91470       -0.12215        0.29877
O          2.33421       -0.15388        0.36293
C          2.86906        1.10570        0.76984
C          4.35509        1.00034        0.80223
O          5.02381        2.17711        1.27535
C          5.11173        1.00979        2.10988
C          6.33901        0.21635        2.20925
C          6.40062       -1.09464        2.47780
H          0.56578       -1.08505       -0.08348
H          0.57422        0.66642       -0.37944
H          0.49420        0.03113        1.29686
H          2.46753        1.37160        1.75478
H          2.57450        1.87557        0.04786
H          4.76919        0.51016       -0.06844
H          4.53990        1.04544        3.03202
H          7.27014        0.75650        2.04975
H          5.50235       -1.67981        2.64109
H          7.35609       -1.60687        2.53258
