18

C          1.03674        0.12189       -0.09370
C          2.51958        0.03709       -0.13305
C          3.27360       -1.06080       -0.13595
C          4.70708       -0.67215       -0.12712
C          4.58338        0.83122       -0.41972
O          3.22459        1.23701       -0.13617
C          5.34599       -0.96616        1.20524
C          6.39520       -1.78142        1.37828
H          0.57560       -0.87037       -0.12972
H          0.66617        0.69819       -0.94707
H          0.70910        0.61585        0.82628
H          2.91065       -2.07732       -0.11248
H          5.25835       -1.16261       -0.93755
H          4.77270        1.03725       -1.48112
H          5.26927        1.44804        0.17118
H          4.91316       -0.47688        2.07724
H          6.86298       -2.29885        0.54688
H          6.80539       -1.95209        2.36937
