20

C          1.01146        0.06237        0.02224
C          2.49808       -0.02841        0.08337
C          3.18515       -0.01232        1.42342
C          3.21636       -1.25746        0.57843
C          2.53997       -2.51393        1.02346
C          3.36551       -3.59304        0.33686
C          4.74190       -2.96423        0.21261
O          4.49531       -1.56952       -0.01265
H          0.70709        1.10085       -0.14415
H          0.53561       -0.27982        0.94739
H          0.62743       -0.54095       -0.80558
H          2.96257        0.51054       -0.73561
H          2.58095       -0.01688        2.32258
H          4.10340        0.55755        1.51341
H          1.48972       -2.57981        0.72488
H          2.60333       -2.62033        2.11140
H          2.95982       -3.77672       -0.66505
H          3.37422       -4.54309        0.87777
H          5.31782       -3.37953       -0.61855
H          5.31664       -3.06556        1.13947
