16

O          1.30704       -0.19801       -0.88093
C          2.20057       -0.08675       -0.04497
C          2.96825       -1.25322        0.51260
C          4.46266       -1.00185        0.39445
C          5.74456       -0.78623        0.29309
C          7.15751       -0.57046        0.19452
C          7.82269       -0.75438       -1.14405
C          7.65903        0.62444       -0.57190
H          2.43761        0.89762        0.39432
H          2.70246       -2.16154       -0.03652
H          2.69461       -1.37899        1.56423
H          7.73489       -0.86486        1.06614
H          7.21269       -1.02428       -1.99875
H          8.81664       -1.18610       -1.15790
H          6.94003        1.28506       -1.04153
H          8.54402        1.12792       -0.19916
