14

C          1.05429       -0.05836        0.06038
C          2.35815       -0.05836        0.06038
C          3.87815       -0.05836        0.06038
C          4.55563        1.09539        0.04021
C          6.05561        1.12201        0.02316
O          6.71855       -0.15627        0.04781
C          5.93913       -1.28108        0.06026
C          4.60178       -1.29794        0.06572
H         -0.01071       -0.05864        0.06043
H          4.03509        2.04715        0.03012
H          6.41523        1.69042        0.88789
H          6.39450        1.64484       -0.87797
H          6.54967       -2.17376        0.06586
H          4.05397       -2.23315        0.07410
