18

C          0.74251       -0.03653       -0.88720
C          2.15910       -0.25146       -0.43999
C          3.19618       -0.58927       -1.48819
O          3.07390        0.73465       -0.94985
C          2.33089       -0.51462        1.04272
C          3.71028       -0.73790        1.68896
C          2.98278       -1.81224        2.49447
O          1.90754       -1.83601        1.51586
H          0.67756        0.17435       -1.95984
H          0.29661        0.80882       -0.35298
H          0.14071       -0.92794       -0.68307
H          2.87808       -0.74133       -2.51280
H          4.06232       -1.17394       -1.20852
H          1.75963        0.25168        1.59154
H          4.49141       -1.13331        1.03478
H          4.10069        0.10193        2.26728
H          2.61248       -1.50096        3.47693
H          3.49613       -2.77339        2.57337
