20

N          0.84850       -0.01880        0.12063
C          2.31768        0.04644       -0.01848
C          2.90866       -1.28151       -0.55609
N          2.38226       -1.74390       -1.84264
C          2.90187       -0.98963       -2.97501
C          2.24616        0.34211       -3.16703
C          2.17957        1.32792       -2.25962
C          2.73714        1.26682       -0.86280
H          0.59066       -0.90547        0.55130
H          0.43359       -0.02256       -0.81101
H          2.72467        0.19212        0.99062
H          2.68228       -2.06842        0.17539
H          4.00384       -1.22279       -0.58829
H          1.36669       -1.69120       -1.83994
H          2.71365       -1.58552       -3.87622
H          3.99167       -0.87490       -2.92432
H          1.81614        0.51902       -4.15139
H          1.69074        2.26031       -2.53619
H          2.41826        2.17660       -0.33680
H          3.83173        1.32421       -0.91835
