19

C          1.93365       -0.02168       -0.45714
C          1.25442       -1.28704        0.02243
C         -0.07423       -0.85276        0.60984
C         -1.25934       -1.14226       -0.24729
C         -1.93496       -0.02299       -0.50194
C         -1.26630        1.14618        0.12606
N         -0.04923        0.61858        0.77411
C          1.19019        1.13233        0.18927
H          1.87502        0.04807       -1.54815
H          2.99444       -0.01871       -0.18016
H          1.86917       -1.75566        0.79908
H          1.15271       -2.01236       -0.79359
H         -0.22721       -1.32828        1.58873
H         -1.54652       -2.13332       -0.56735
H         -2.85668        0.03735       -1.05984
H         -1.91942        1.59034        0.88842
H         -1.06657        1.91714       -0.63055
H          1.79891        1.55337        0.99792
H          1.04677        1.94355       -0.53433
