18

C          2.14469        0.42939        1.37794
C          2.54863        0.17885       -0.05311
O          2.26831        0.97143       -0.95035
C          3.29894       -1.10245       -0.34535
C          4.80173       -0.87173       -0.26758
O          5.16441       -0.50719        1.06217
C          5.55267       -2.12917       -0.61504
C          6.43618       -2.23559       -1.61632
H          1.67908        1.41645        1.46345
H          3.01706        0.40447        2.03317
H          1.42405       -0.33007        1.69014
H          3.00267       -1.44200       -1.34571
H          2.96543       -1.86361        0.36832
H          5.09370       -0.04269       -0.92329
H          5.25138       -1.31506        1.59466
H          5.36229       -3.00908       -0.00379
H          6.67339       -1.39540       -2.26242
H          6.94739       -3.17276       -1.80986
