20

C          2.83995        1.27344       -0.82999
C          2.41397        0.10266        0.04709
O          0.98453        0.04340        0.07013
C          2.95379       -1.24822       -0.43624
C          4.45250       -1.33868       -0.40716
O          5.05411       -1.05081        0.86266
C          5.15533       -2.38580       -1.22824
C          5.26456       -0.93670       -1.60836
H          2.35718        2.19568       -0.49246
H          2.53253        1.11801       -1.86962
H          3.92275        1.42679       -0.80215
H          2.73775        0.29057        1.07555
H          0.67418       -0.02172       -0.84926
H          2.56666       -1.46241       -1.44099
H          2.54214       -2.04076        0.20266
H          4.61476       -1.53115        1.58645
H          4.56633       -3.03068       -1.86991
H          6.03624       -2.86104       -0.81238
H          4.74768       -0.60584       -2.50138
H          6.20667       -0.43031       -1.43115
