16

C          5.52485        4.87770       -1.67345
C          5.69762        3.38609       -1.42689
O          4.38341        2.79201       -1.27861
C          4.36609        1.52849       -0.74741
C          5.31169        1.04238        0.06478
C          6.42339        1.87688        0.51611
O          6.17834        3.19920        1.04221
C          6.65677        3.11495       -0.30143
H          4.87567        5.04803       -2.53917
H          6.48935        5.36182       -1.86142
H          5.05335        5.37047       -0.81694
H          6.12696        2.94641       -2.33597
H          3.45963        0.99905       -1.01511
H          5.22472        0.03623        0.45963
H          7.29096        1.34668        0.88954
H          7.66713        3.44101       -0.49867
