16

N          1.03414       -0.08049       -0.12969
C          2.36865        0.04166       -0.11034
C          3.17531        1.15592       -0.10055
C          4.52306        0.70854       -0.08516
C          5.72594        1.47320       -0.07356
C          5.80441        2.81072       -0.07310
C          4.49222       -0.67034       -0.08485
N          3.17666       -1.06221       -0.10076
H          0.43148        0.73749       -0.09232
H          0.54135       -0.96588       -0.07782
H          2.82675        2.17896       -0.10601
H          6.66216        0.91754       -0.06509
H          4.92371        3.44302       -0.08146
H          6.77040        3.30457       -0.06456
H          5.28283       -1.40806       -0.07671
H          2.85072       -2.01697       -0.10843
