24

C          0.90826       -0.14060        0.03772
C          2.42505        0.00274        0.08744
C          2.96317        1.34917        0.64680
C          2.47776        2.52930       -0.21554
C          2.49740        1.56645        2.09794
C          4.51349        1.31429        0.63880
O          5.00035        1.13746       -0.69254
C          6.41902        1.08040       -0.73508
H          0.64447       -1.12422       -0.36553
H          0.45224        0.61141       -0.61203
H          0.46024       -0.06447        1.03221
H          2.80574       -0.15266       -0.93003
H          2.82426       -0.82189        0.69227
H          1.39223        2.65777       -0.15160
H          2.73573        2.38873       -1.27095
H          2.93278        3.46956        0.11641
H          1.41038        1.67898        2.16431
H          2.94107        2.47491        2.52177
H          2.78904        0.72521        2.73657
H          4.87457        0.48882        1.26564
H          4.91636        2.25157        1.04298
H          6.72640        0.93968       -1.77490
H          6.78661        0.23566       -0.14477
H          6.85118        2.01550       -0.36604
