20

C          1.08056        0.03740        0.03983
C          2.59789        0.01515        0.06085
C          3.10456       -1.01666        1.05538
C          3.53917       -1.90174        1.90848
C          3.97287       -2.87249        2.85987
C          3.04048       -3.58482        3.51242
C          5.44903       -3.09593        3.08269
C          6.16348       -1.86222        3.61986
H          0.72038        0.78131       -0.67756
H          0.67593        0.28978        1.02593
H          0.67554       -0.93882       -0.24787
H          2.98455        1.00092        0.34051
H          2.98419       -0.22827       -0.93463
H          1.98009       -3.42834        3.33449
H          3.31011       -4.34577        4.23691
H          5.91317       -3.40225        2.13746
H          5.60938       -3.92207        3.78678
H          6.10636       -1.02612        2.91505
H          7.22265       -2.08492        3.78543
H          5.73234       -1.53764        4.57276
