16

C         -0.24519        1.77571        0.07459
C         -1.38822        0.86912       -0.32081
C         -1.26311       -0.44763       -0.10014
C         -0.02536       -0.97192        0.57814
O          0.61857        0.13121        1.26257
C          1.17169        1.01060        0.30082
C          1.77299       -0.19028       -0.49242
C          1.04140       -1.30596       -0.37505
H         -0.51251        2.28006        1.01466
H         -0.14751        2.58341       -0.66484
H         -2.27152        1.29427       -0.78239
H         -2.03388       -1.14880       -0.40221
H         -0.23981       -1.75512        1.31014
H          1.43365        1.49596       -0.66641
H          2.68916       -0.12252       -1.07259
H          1.23064       -2.26080       -0.82491
