18

C          0.87203        0.03941        0.02487
C          2.40700        0.02686        0.02612
C          2.89118       -1.11646        0.92867
C          4.37171       -1.30847        0.90660
C          5.26620       -0.35995        1.20492
O          5.04002        0.93050        1.59503
C          4.02740        1.70812        1.10422
C          2.92156        1.38984        0.41532
H          0.47556       -0.92657       -0.30679
H          0.48355        0.80395       -0.65753
H          0.47170        0.24454        1.02429
H          2.73167       -0.16460       -1.00554
H          2.42856       -2.05453        0.59473
H          2.56015       -0.96935        1.96527
H          4.73519       -2.30245        0.65904
H          6.33119       -0.56001        1.22921
H          4.25619        2.74214        1.34351
H          2.30728        2.22911        0.09004
