17

C          2.19978       -0.93297       -0.74735
N          2.47458        0.27719        0.01998
N          2.58925        1.34341       -0.88037
C          2.20129        2.59591       -0.43966
N          2.90864        3.63461       -0.79627
C          4.01353        3.13859       -1.60030
C          3.80182        2.38401       -2.88345
C          3.85126        1.61765       -1.60143
H          2.15406       -1.79237       -0.07281
H          2.97808       -1.13302       -1.49219
H          1.23311       -0.86227       -1.25807
H          3.33608        0.17054        0.55420
H          1.32015        2.63245        0.22052
H          4.96871        3.63027       -1.48150
H          4.64330        2.28194       -3.55697
H          2.84702        2.48270       -3.38564
H          4.71387        1.02758       -1.32981
