20

C          2.10342        1.07009       -0.89008
C          2.35473       -0.05837        0.09879
C          2.96187       -1.27627       -0.56678
C          1.95662       -2.27337       -1.09660
C          4.29577       -1.48394       -0.67073
C          5.37262       -0.53727       -0.20838
C          4.80243       -2.77140       -1.30012
C          5.23704       -3.87579       -1.84001
H          1.67111        1.93325       -0.37382
H          1.40620        0.76272       -1.67634
H          3.03377        1.39595       -1.36805
H          1.41115       -0.33384        0.58636
H          2.99093        0.30284        0.91449
H          0.92930       -1.91237       -0.98028
H          2.02970       -3.22234       -0.55470
H          2.10957       -2.45196       -2.16592
H          4.99002        0.40708        0.18426
H          6.03505       -0.28852       -1.04496
H          5.97438       -1.00620        0.57734
H          5.59081       -4.77814       -2.28112
