18

C          1.06619       -0.11292       -0.05541
C          2.59396       -0.08159       -0.02472
C          3.09081        1.23074        0.58064
C          3.12337       -1.25431        0.76111
C          3.93024       -2.18973        0.24724
O          4.38535       -3.25785        1.02174
C          5.20167       -4.15015        0.38503
O          5.58677       -4.12907       -0.77398
H          0.67430        0.72254       -0.64564
H          0.64111       -0.04057        0.95222
H          0.70160       -1.04130       -0.50893
H          2.95422       -0.13498       -1.06010
H          2.75682        1.34889        1.61776
H          2.71703        2.08657        0.00804
H          4.18550        1.27687        0.57196
H          2.82220       -1.33381        1.80360
H          4.27645       -2.18431       -0.77913
H          5.47703       -4.93443        1.10797
