16

C          0.97637       -0.01968        0.12683
C          2.50150       -0.01833        0.09655
C          3.02986       -1.01490       -0.93041
C          3.00816        1.37649       -0.23233
C          3.44278        2.57297       -0.51445
C          3.88916        3.89893       -0.86738
O          4.86642        4.37614       -0.06771
O          3.40845        4.50739       -1.80735
H          0.59244       -1.01383        0.37862
H          0.55591        0.27152       -0.84262
H          0.59980        0.68663        0.87514
H          2.87825       -0.29477        1.08851
H          2.69269       -0.76407       -1.94274
H          2.68827       -2.02956       -0.70041
H          4.12553       -1.02210       -0.94009
H          5.10423        3.72755        0.62255
