20

C          1.59321       -0.95368        0.92228
C          2.48632       -0.10716        0.02861
C          3.03824       -0.90475       -1.11717
C          4.34902       -1.10214       -1.32592
C          4.81369       -1.88768       -2.49218
C          5.08813       -1.07257       -3.76652
C          6.37450       -1.89200       -3.82998
O          6.21488       -2.29003       -2.44328
H          1.19183       -0.34509        1.73904
H          2.14982       -1.78743        1.36328
H          0.74695       -1.36621        0.36248
H          3.29314        0.32586        0.63120
H          1.90542        0.72956       -0.37606
H          2.30845       -1.32488       -1.80735
H          5.10111       -0.69637       -0.65596
H          4.19270       -2.77764       -2.66502
H          5.25337       -0.00018       -3.62104
H          4.38728       -1.23172       -4.58928
H          7.29075       -1.31922       -3.99288
H          6.34961       -2.76101       -4.49494
