17

N          1.95874       -1.59655       -0.56715
C          3.39998       -1.32792       -0.55445
C          3.58284        0.12604       -0.86188
C          4.28538        0.96057       -0.08332
C          4.09158       -2.23627       -1.55925
N          4.99539       -3.08296       -1.16305
N          5.48919       -3.85434       -2.20578
C          6.37320       -4.68458       -1.77075
H          1.51101       -0.89381        0.02774
H          1.79777       -2.48634       -0.09932
H          3.79447       -1.55891        0.44213
H          3.02236        0.53497       -1.70199
H          4.85362        0.59582        0.76848
H          4.27888        2.03092       -0.26192
H          3.77492       -2.17696       -2.61913
H          6.86939       -5.38128       -2.46570
H          6.67161       -4.74878       -0.71304
