18

C          1.07842        0.17829       -0.04760
C          2.58222        0.13793       -0.05682
C          3.34081       -0.98585        0.80796
C          4.50994       -0.51868       -0.18060
C          3.32819       -0.63863       -1.25135
C          4.79124        0.96678        0.10446
O          4.24225        1.94054       -0.77165
C          3.31814        1.47835        0.20272
H          0.65352       -0.81191       -0.24187
H          0.70040        0.86034       -0.81585
H          0.70120        0.51822        0.92225
H          2.98808       -2.01858        0.71028
H          3.49105       -0.75449        1.86652
H          5.36960       -1.17854       -0.29726
H          2.97501       -1.64867       -1.48899
H          3.46179       -0.08301       -2.18379
H          5.46192        1.18089        0.92154
H          3.02869        2.02324        1.08783
