20

N          0.82441        0.14449       -0.26464
C          2.24865        0.08163        0.04870
C          2.91374       -1.20695       -0.43042
C          4.38601       -0.81843       -0.54552
C          4.98110       -0.65815       -1.96414
C          5.34760        0.77224       -1.54988
N          4.47980        0.65883       -0.36902
C          3.11240        1.15587       -0.62179
H          0.34034       -0.60544        0.22719
H          0.67645       -0.02795       -1.25764
H          2.36374        0.16608        1.13764
H          2.51969       -1.53386       -1.40042
H          2.75941       -2.02281        0.28396
H          5.03779       -1.36807        0.14417
H          4.25910       -0.70928       -2.78626
H          5.82963       -1.30886       -2.19401
H          5.09825        1.55863       -2.27025
H          6.40547        0.88663       -1.28485
H          2.87282        1.23053       -1.69132
H          2.96434        2.14173       -0.16932
