20

C          1.01303       -0.09100       -0.06414
C          2.53999       -0.16159       -0.11667
C          3.06368       -0.96771        1.07465
C          3.01758       -0.72299       -1.46355
O          4.44841       -0.75995       -1.52938
C          4.70739       -1.84404       -2.41792
C          3.62540       -2.83264       -2.07174
O          2.49442       -2.03196       -1.72448
H          0.67893        0.39357        0.85940
H          0.56204       -1.08859       -0.10085
H          0.62154        0.48987       -0.90577
H          2.94061        0.85597       -0.01546
H          2.71088       -2.00346        1.04601
H          2.72706       -0.52368        2.01836
H          4.15879       -0.98104        1.09087
H          2.66741       -0.06983       -2.27278
H          5.71608       -2.23792       -2.27187
H          4.60790       -1.47851       -3.44608
H          3.89559       -3.42913       -1.19430
H          3.37999       -3.50552       -2.89794
