20

N          1.14135        0.20242        0.19906
C          2.60357        0.05349        0.25944
C          3.01412       -1.25658       -0.42841
C          4.53235       -1.38017       -0.50233
C          5.07955       -0.27386       -1.34207
N          5.76649        0.83862       -0.70277
C          4.42779        1.08330       -1.23903
C          3.29172        1.32386       -0.28798
H          0.69689       -0.63378        0.57513
H          0.84590        0.25876       -0.77702
H          2.86857       -0.03042        1.32164
H          2.59327       -1.30349       -1.44131
H          2.60848       -2.11177        0.12730
H          4.80191       -2.34450       -0.94663
H          4.96572       -1.36210        0.50621
H          5.43335       -0.59937       -2.31285
H          6.47943        1.23207       -1.32027
H          4.37367        1.70970       -2.12185
H          3.64296        1.92877        0.55907
H          2.55984        1.96019       -0.80292
