18

O          1.02543       -0.00831        0.01442
C          2.43821        0.18906        0.05487
C          3.34783       -0.54432       -1.01065
C          4.43049       -0.20662        0.07531
C          3.30353       -0.66164        1.06908
C          4.48330        1.33569        0.16452
C          3.00123        1.56419        0.14331
C          2.29243        2.69196        0.18532
H          0.90495       -0.97082       -0.02745
H          3.46982       -0.04958       -1.97988
H          3.13893       -1.60663       -1.18338
H          5.36848       -0.76093        0.06407
H          3.38263       -0.27951        2.09207
H          3.09027       -1.73622        1.11184
H          4.98788        1.77048       -0.70251
H          4.94603        1.66753        1.09786
H          2.77739        3.65993        0.24750
H          1.20654        2.67042        0.15749
