14

O          0.92955        0.04342        0.05816
C          2.34660        0.05602        0.03840
C          2.85326       -1.36281        0.23996
C          3.28787       -2.57988        0.41286
C          3.79453       -3.99870        0.61442
O          4.15668       -4.54680       -0.64462
C          5.02013       -3.97615        1.51319
C          6.07145       -3.95681        2.28416
H          0.64063        0.95913       -0.08551
H          2.71229        0.70023        0.84326
H          2.69059        0.44071       -0.92612
H          3.01154       -4.62067        1.05849
H          4.82809       -3.94646       -1.00861
H          6.92996       -3.94376        2.91522
