20

C          0.89322       -0.27156        0.21761
C          2.35770        0.01299       -0.07533
C          2.94653        1.09512        0.81511
C          2.96267        0.76182        2.28833
C          4.12930        1.85744        0.25716
C          2.79335        2.54934        0.38481
C          2.62003        3.63808        1.37781
O          1.61944        4.34440        1.36648
H          0.52860       -1.07174       -0.43452
H          0.27826        0.61733        0.04643
H          0.74408       -0.59312        1.25295
H          2.45246        0.29379       -1.13218
H          2.93875       -0.90804        0.05474
H          3.29335       -0.26988        2.44657
H          1.96012        0.87192        2.71448
H          3.63827        1.41224        2.85323
H          4.47707        1.62578       -0.74516
H          4.93398        2.13766        0.92827
H          2.25933        2.73639       -0.54312
H          3.42731        3.78145        2.11557
