16

C          0.91163       -0.08442        0.04088
C          2.43152       -0.06046        0.04883
C          2.96643        1.26124        0.59134
C          4.48643        1.26124        0.59134
C          5.79028        1.26124        0.59134
C          7.23150        1.27243        0.53509
O          7.82507        1.01682        1.72061
O          7.83025        1.49526       -0.50236
H          0.54955       -1.03986       -0.35147
H          0.51001        0.71566       -0.58914
H          0.51210        0.04077        1.05234
H          2.80096       -0.22473       -0.97082
H          2.80290       -0.89398        0.65751
H          2.61405        1.42559        1.61592
H          2.61387        2.09805       -0.02216
H          7.16319        0.86658        2.42053
