12

C          1.11442        0.06572        0.24545
C          2.42755        0.06494        0.00401
C          3.28283       -1.12077       -0.15140
O          2.96821       -2.28933       -0.06967
C          4.63766       -0.60724       -0.43417
C          4.63705        0.73328       -0.44159
C          3.28253        1.24845       -0.16477
O          2.96626        2.41779       -0.09600
H          0.56488       -0.86494        0.34866
H          0.56455        0.99729        0.33822
H          5.47427       -1.26390       -0.60476
H          5.47327        1.38892       -0.61926
