16

C          1.06322       -0.21006       -0.09506
C          2.58302        0.00048       -0.10897
C          3.05419       -0.05686       -1.50875
C          3.45828       -0.13193       -2.63964
C          3.05122        1.28751        0.53881
C          2.28898        2.27339        1.04273
C          4.52473        1.47031        0.68987
O          5.33268        0.56375        0.53219
H          0.79977       -1.17178       -0.55062
H          0.54098        0.56806       -0.66502
H          0.66985       -0.21039        0.92677
H          3.02459       -0.83884        0.44502
H          3.83976       -0.21189       -3.63213
H          1.20508        2.23120        1.01323
H          2.71281        3.15469        1.51650
H          4.85614        2.48132        0.98019
