18

O          2.06115        0.26968       -1.34922
C          2.45827       -0.13634       -0.04671
C          2.94743       -1.58261       -0.07125
C          3.39681       -2.02287        1.32130
O          3.88591       -3.36965        1.35622
C          3.12049       -4.26797        0.66482
C          2.16826       -3.95611       -0.22012
C          1.86702       -2.53966       -0.59670
H          1.78297        1.20069       -1.28799
H          1.60260       -0.01966        0.62771
H          3.25760        0.53147        0.29046
H          3.80230       -1.65786       -0.75804
H          2.58008       -1.93405        2.04943
H          4.21130       -1.37968        1.67290
H          3.39999       -5.28433        0.91109
H          1.60552       -4.74537       -0.71005
H          0.87953       -2.27548       -0.19972
H          1.80910       -2.46226       -1.68912
