18

C          1.08526        0.00873       -0.01337
C          2.58559        0.09042        0.08099
C          3.23893        1.03706        0.97570
C          2.66663        1.90908        1.81434
C          3.31708       -0.75357       -0.67017
O          4.69075       -0.77591       -0.67125
C          5.34150       -1.91754       -1.05905
C          6.67391       -1.97799       -1.10641
H          0.55857        0.69173        0.65584
H          0.74509       -1.00290        0.23652
H          0.75565        0.24145       -1.03216
H          4.33004        1.02340        0.96433
H          1.59581        2.02195        1.92906
H          3.28928        2.55002        2.43139
H          2.86718       -1.47264       -1.34327
H          4.70881       -2.76325       -1.28571
H          7.27686       -1.11025       -0.85669
H          7.18270       -2.89177       -1.38447
