18

C          0.90741        0.01483       -0.21140
C          2.42169        0.11236       -0.07152
O          2.76228        1.41518        0.41169
C          2.98766       -0.97018        0.84416
C          2.87950       -2.41885        0.39733
C          4.21118       -1.73359        0.36822
C          2.86377       -0.73387        2.26672
C          2.74640       -0.47853        3.43305
H          0.51981        0.85813       -0.79214
H          0.41347        0.04429        0.76559
H          0.61683       -0.91497       -0.71027
H          2.86800        0.03378       -1.06912
H          2.37207        1.50304        1.29862
H          2.40112       -2.63830       -0.55135
H          2.72204       -3.18632        1.14759
H          4.63171       -1.49264       -0.60266
H          4.95502       -2.04180        1.09417
H          2.63660       -0.21608        4.46059
