16

O          0.94116       -0.09132        0.02845
C          2.35780        0.05612        0.05461
C          2.91094       -0.32952       -1.30764
C          3.38542       -0.66031       -2.47618
C          2.77178        1.47976        0.41868
C          1.88280        2.45706        0.68012
C          4.20890        1.70436        0.57140
C          4.85597        2.84763        0.31324
H          0.76622       -0.94210       -0.40591
H          2.74230       -0.64101        0.80854
H          3.77381       -0.91961       -3.43397
H          0.81374        2.27976        0.60195
H          2.18279        3.45303        0.98808
H          4.79612        0.84394        0.89238
H          4.34475        3.74073       -0.03389
H          5.93214        2.91391        0.43959
