20

C          0.94053        0.15719        0.00649
C          2.45466       -0.04089       -0.05567
O          2.96453        0.23517        1.25119
C          2.93742       -1.41798       -0.50228
C          2.12457       -2.44165       -0.82875
C          4.38850       -1.61182       -0.58835
C          5.17154       -0.71155       -1.50430
C          5.01286       -2.57098        0.11580
H          0.70641        1.17290        0.34496
H          0.47925       -0.52104        0.73373
H          0.47113        0.00647       -0.97070
H          2.85831        0.72477       -0.72745
H          2.89023       -0.59099        1.75870
H          1.04380       -2.36652       -0.79255
H          2.52152       -3.39872       -1.15664
H          4.52532       -0.08862       -2.13070
H          5.79351       -1.30580       -2.18379
H          5.82393       -0.04917       -0.92546
H          4.47596       -3.23382        0.78715
H          6.08753       -2.71026        0.04391
