16

C          1.10289       -0.06446       -0.07074
C          2.60394       -0.22541        0.06675
C          3.13656       -1.33542        0.84738
C          2.44777       -2.36467        1.36681
C          3.34032        0.75028       -0.51244
C          4.79056        1.04119       -0.59543
O          5.59778       -0.02713       -0.59047
O          5.19595        2.18156       -0.74076
H          0.51134       -0.84876        0.40292
H          0.81747       -0.04745       -1.12914
H          0.78732        0.88062        0.38809
H          4.20198       -1.33847        1.06473
H          1.37708       -2.49642        1.26794
H          2.96068       -3.13342        1.93917
H          2.79691        1.56150       -0.99851
H          5.11883       -0.87066       -0.70157
