15

N          1.21862       -0.42669       -0.18120
N          2.53624       -0.24082        0.07013
C          2.86556        0.37072        1.15869
N          2.19919        0.90257        2.23712
C          0.98280        0.56724        2.77557
C          0.43188        1.08935        3.87435
C          4.30450        0.50748        1.20239
C          5.50202        0.58075        1.25828
H          1.08108       -0.58621       -1.18103
H          0.65665        0.38411        0.07804
H          2.76391        1.48535        2.84303
H          0.46637       -0.23245        2.25056
H          0.91276        1.87521        4.44426
H         -0.52931        0.73042        4.23156
H          6.56588        0.60629        1.30125
