20

C          1.04299       -0.13101       -0.07961
C          2.56183       -0.05886       -0.01870
C          3.10781        1.37461        0.05870
C          2.64318        2.12230        1.30878
C          4.63404        1.32164        0.02953
O          5.30908        1.22082        1.05222
C          5.28187        1.35986       -1.31571
C          6.61371        1.29693       -1.43750
H          0.72213       -1.16724       -0.22737
H          0.65328        0.46624       -0.90993
H          0.58669        0.22438        0.84889
H          2.96601       -0.55262       -0.91154
H          2.91596       -0.64395        0.83939
H          2.76666        1.94531       -0.81430
H          2.90833        1.57923        2.22256
H          1.55951        2.27323        1.30436
H          3.11253        3.11099        1.36388
H          4.63956        1.43807       -2.18362
H          7.26083        1.21691       -0.56752
H          7.08735        1.32405       -2.41245
