16

C          1.11662        0.09766        0.19293
C          2.44483       -0.01444        0.03353
C          3.18307       -1.04737        0.80860
O          2.64492       -1.79358        1.61940
C          3.15152        0.84499       -0.94546
C          3.08574        2.36244       -0.68915
C          4.56760        2.33490       -1.05345
O          4.60867        0.89770       -0.84434
H          0.57745       -0.53770        0.89216
H          0.52812        0.81923       -0.36431
H          4.26398       -1.11013        0.60301
H          2.87842        0.56681       -1.97349
H          2.89176        2.66471        0.34490
H          2.44399        2.92840       -1.36844
H          5.23041        2.87306       -0.37158
H          4.80559        2.58923       -2.09117
