20

N          1.71660        0.97477        0.57040
C          2.59449       -0.06385        0.05578
C          3.12202       -0.87275        1.19390
C          4.42561       -1.01698        1.48776
C          4.94364       -1.82847        2.64021
N          5.74289       -0.97395        3.52562
C          6.31469       -1.70792        4.65303
C          7.17594       -1.25701        3.50503
H          1.37858        1.53904       -0.20626
H          2.26880        1.60269        1.15464
H          3.40254        0.39006       -0.52787
H          2.02712       -0.71707       -0.61519
H          2.37391       -1.36275        1.81434
H          5.17643       -0.52399        0.87511
H          5.51070       -2.67695        2.23517
H          4.10653       -2.25097        3.21022
H          6.09057       -2.76290        4.75173
H          6.37387       -1.15809        5.58431
H          7.55786       -2.00200        2.81848
H          7.82461       -0.40379        3.66301
