20

C          1.34228        0.40665        1.05793
O          2.18481        0.74569       -0.07432
C          1.00232        1.04312       -0.86181
C          0.11290        0.26599        0.13334
C         -1.17305        0.94288        0.60984
C         -2.27950       -0.01449        0.17481
C         -1.63074       -1.38239        0.31494
C         -0.24507       -1.16588       -0.28453
H          1.31503        1.22998        1.77972
H          1.67868       -0.50484        1.55959
H          1.07191        0.63446       -1.87362
H          0.83717        2.12442       -0.91737
H         -1.31834        1.94088        0.18544
H         -1.17964        1.03332        1.70242
H         -2.54760        0.16906       -0.87245
H         -3.18150        0.08951        0.78386
H         -2.18845       -2.16883       -0.20081
H         -1.54771       -1.65383        1.37392
H         -0.30799       -1.24508       -1.37628
H          0.47051       -1.91475        0.06868
