20

C          1.02411        0.17079       -0.04090
C          2.54576        0.11215       -0.03468
O          3.05349        1.40845        0.26508
C          3.06142       -0.90565        0.98513
C          4.58811       -1.02554        0.96665
C          5.06289       -2.04822        1.95402
C          6.53454       -2.25235        2.19671
O          5.71334       -1.50901        3.10977
H          0.67411        0.92079       -0.75791
H          0.63743        0.46784        0.93998
H          0.59044       -0.79769       -0.30888
H          2.89746       -0.15362       -1.03760
H          2.76409        1.64414        1.16379
H          2.61724       -1.88748        0.77706
H          2.74389       -0.61644        1.99497
H          5.04566       -0.05126        1.17965
H          4.91897       -1.32332       -0.03477
H          4.40549       -2.89832        2.07746
H          7.24489       -1.70267        1.59224
H          6.87012       -3.23220        2.51305
