18

C         -1.72818        0.59442        0.12706
O         -1.48959       -0.71545       -0.42271
C         -0.35902       -1.16631        0.32789
C          0.91329       -1.10879       -0.52947
C          1.87658        0.00679       -0.07400
C          1.17048        1.24178        0.54470
C         -0.36715        1.07284        0.67938
O         -0.21387       -0.21722        1.38080
H         -2.46616        0.49824        0.93494
H         -2.17492        1.25132       -0.63098
H         -0.54955       -2.16719        0.72551
H          0.65322       -0.96570       -1.58537
H          1.44014       -2.06877       -0.47253
H          2.50756        0.31692       -0.91486
H          2.55933       -0.40789        0.67898
H          1.43053        2.15383       -0.01381
H          1.59291        1.41380        1.54553
H         -0.22932        1.19714       -0.42180
