21

C          0.76769        1.40052       -0.30250
C         -0.76902        1.35710       -0.29341
N         -1.27974        0.00016       -0.00038
C         -0.76885       -0.93231       -1.02873
C          0.76786       -0.96260       -1.06089
C          1.32039       -0.00000        0.00071
C          0.76687       -0.43782        1.36482
C         -0.76981       -0.42441        1.32162
H          1.12610        2.11698        0.44614
H          1.12644        1.74333       -1.28026
H         -1.15863        1.69855       -1.26065
H         -1.15895        2.06731        0.44653
H         -1.15808       -0.64642       -2.01398
H         -1.15903       -1.94051       -0.84104
H          1.12698       -0.67266       -2.05548
H          1.12604       -1.98093       -0.86869
H          2.41490       -0.00007        0.00117
H          1.12491        0.23763        2.15083
H          1.12539       -1.44430        1.61122
H         -1.16013        0.24242        2.10068
H         -1.15963       -1.42043        1.56644
