20

C          1.75823        0.00794        0.99577
C          2.25388       -0.02623       -0.42079
C          0.76829       -0.01767       -0.14578
C         -0.00625        1.26047       -0.46745
N         -1.30450        1.27187        0.21936
C         -2.05500        0.03954       -0.06829
C         -1.26543       -1.23510        0.29897
N          0.03645       -1.29295       -0.38752
H          1.87092        0.92715        1.55812
H          1.86816       -0.88852        1.59519
H          2.70763       -0.94618       -0.77138
H          2.71514        0.87045       -0.81721
H         -0.15410        1.33130       -1.55208
H          0.56067        2.14639       -0.15939
H         -1.84086        2.07752       -0.09490
H         -2.32933        0.01473       -1.13060
H         -2.98892        0.05675        0.50399
H         -1.85057       -2.12020        0.02659
H         -1.10761       -1.27777        1.38367
H         -0.13243       -1.38862       -1.38806
