16

C          1.82022        0.23496        1.27447
C          2.21275       -0.02015        0.01676
C          2.99371       -1.24174       -0.39420
C          2.11396       -2.43851       -0.77833
C          1.23976       -2.17456       -1.93128
C          0.51957       -1.94835       -2.86621
C          1.90151        0.99671       -1.02417
O          2.41661        0.99384       -2.13495
H          2.04157       -0.45765        2.08111
H          1.27815        1.13722        1.54445
H          3.63918       -1.54871        0.43937
H          3.67793       -0.99799       -1.21640
H          1.50323       -2.74148        0.08032
H          2.76563       -3.28906       -1.01355
H         -0.11049       -1.72660       -3.69615
H          1.18553        1.78221       -0.72749
