16

C          1.01278        0.39406       -1.40781
C          2.34040        0.33506       -1.29744
O          2.95641       -0.74936       -0.74123
C          4.38339       -0.74999       -0.85080
C          4.92807       -2.11509       -0.40166
O          5.43044       -1.98656        0.95191
C          5.52997       -0.62451        1.12789
C          4.99262        0.13163        0.17763
H          0.52096        1.26642       -1.82196
H          0.39331       -0.42952       -1.06944
H          2.98502        1.14605       -1.61060
H          4.69812       -0.53174       -1.87820
H          5.77540       -2.42224       -1.02671
H          4.16938       -2.90462       -0.42147
H          5.99896       -0.31637        2.04729
H          4.95558        1.20826        0.17813
