20

C          3.17440       -0.93635       -0.87047
C          2.53333       -0.09304        0.22368
C          2.82640       -0.62747        1.63258
C          2.15090        0.25634        2.68751
C          2.40055       -0.30037        4.08604
C          2.28467       -1.78931        4.09612
C          2.25396       -2.50085        2.96536
O          2.36875       -1.98950        1.70236
H          3.01675       -0.46779       -1.84710
H          2.73480       -1.93819       -0.90749
H          4.25217       -1.03749       -0.71062
H          1.45040       -0.07943        0.04899
H          2.89250        0.93907        0.13918
H          3.91360       -0.62869        1.79282
H          1.06788        0.27697        2.50727
H          2.51218        1.28924        2.62629
H          1.67696        0.13470        4.78449
H          3.40094       -0.01994        4.43460
H          2.19226       -2.29176        5.05412
H          2.11324       -3.57420        2.93503
