14

O          1.22768       -0.03216       -0.40375
C          2.43243       -0.00388       -0.19739
C          3.21806       -1.22637        0.03580
C          4.44713       -0.81816        0.36097
C          4.60357        0.67206        0.42029
C          3.30783        1.22847       -0.18788
C          3.51938        1.73408       -1.55678
C          3.70008        2.11386       -2.68034
H          2.82762       -2.22401       -0.06175
H          5.26201       -1.49390        0.58676
H          5.50225        1.00031       -0.11343
H          4.70010        0.97682        1.46760
H          2.87480        1.99316        0.46322
H          3.85713        2.43066       -3.68596
