19

N          1.10369        0.30651        0.11998
C          2.53043        0.03996       -0.05862
C          2.83255       -1.45952       -0.24357
C          2.59102       -1.70256       -1.74298
N          3.25754       -2.89818       -2.22445
C          3.10592       -0.43722       -2.38219
N          2.27013        0.73268       -2.58102
C          3.04198        0.65589       -1.34367
H          0.79823       -0.11539        0.99727
H          0.55823       -0.16248       -0.59863
H          3.07856        0.43688        0.80236
H          2.23089       -2.11198        0.39879
H          3.88905       -1.63535        0.00498
H          1.51550       -1.80674       -1.93184
H          4.26665       -2.81508       -2.10753
H          3.09173       -2.99176       -3.22519
H          4.01131       -0.52304       -2.96692
H          1.28309        0.58376       -2.36876
H          3.88779        1.31922       -1.22955
