20

C          1.12563        0.04965        0.18376
C          2.60563        0.00693       -0.00789
C          3.23408       -0.34902       -1.13738
C          2.56453       -0.81192       -2.40430
C          3.06871        0.00568       -3.58666
C          4.59371        0.01931       -3.59764
C          5.12467        0.45825       -2.23598
O          4.62047       -0.35190       -1.16623
H          0.89034        0.42663        1.18418
H          0.69058       -0.95008        0.09295
H          0.65466        0.72206       -0.54021
H          3.21110        0.29815        0.84790
H          1.47354       -0.74381       -2.35057
H          2.80852       -1.87073       -2.55867
H          2.69294        1.03404       -3.51061
H          2.68559       -0.40973       -4.52500
H          4.96381        0.68453       -4.38451
H          4.95502       -0.99263       -3.81765
H          4.88114        1.50940       -2.03705
H          6.21629        0.37027       -2.22476
