19

N          0.94676       -0.04112       -0.01823
C          2.41551       -0.08247       -0.03722
C          3.18388       -0.87409       -1.06639
C          2.49063       -1.63367       -2.11586
C          2.09381       -2.90919       -2.01843
C          3.16109        0.63788       -1.13507
C          4.36861        1.39152       -0.77833
C          5.55851        1.30889       -1.38879
H          0.58828       -0.74680        0.62555
H          0.56964       -0.30077       -0.92980
H          2.85626       -0.04291        0.95807
H          4.10359       -1.34275       -0.72575
H          2.30306       -1.11372       -3.05445
H          2.26430       -3.48400       -1.11393
H          1.59649       -3.40343       -2.84685
H          2.56279        1.11431       -1.90550
H          4.26755        2.09196        0.05001
H          5.71671        0.63642       -2.22588
H          6.39696        1.91376       -1.05908
