19

N          2.77086        0.04770       -2.57087
C          2.32352        0.54636       -1.47526
N          3.07599        1.03217       -0.45574
C          4.52548        1.04140       -0.45723
C          5.06930        2.29968       -1.13719
C          6.57047        2.30972       -1.14549
C          7.32328        3.48845       -1.70854
N          7.31418        3.21397       -0.27352
H          1.98379       -0.24775       -3.15844
H          1.23934        0.61726       -1.28226
H          2.61634        1.44823        0.34464
H          4.91504        0.14007       -0.94693
H          4.87645        1.00285        0.58013
H          4.67189        3.19195       -0.63641
H          4.71236        2.34312       -2.17419
H          7.00627        1.33221       -1.32349
H          6.77461        4.35788       -2.04531
H          8.25704        3.29385       -2.22220
H          6.70440        3.87721        0.20796
