16

C          1.15639        0.10885        0.15498
C          2.49692        0.07503        0.06622
C          3.27419       -1.20236       -0.05899
O          4.12715       -1.12012       -1.19573
C          4.99229        0.00293       -1.06187
O          4.31834        1.25876       -0.96265
C          3.32054        1.26723       -0.00824
C          3.16270        2.34519        0.76844
H          0.56697       -0.80284        0.16346
H          0.60952        1.04631        0.18521
H          2.61740       -2.06684       -0.19675
H          3.87266       -1.38606        0.84235
H          5.61825        0.04162       -1.95882
H          5.66286       -0.12955       -0.20277
H          3.81281        3.20537        0.65157
H          2.40031        2.39335        1.53767
