16

C          1.01418        0.01617        0.17020
O          2.42096        0.09275       -0.03479
C          2.99493       -1.02829       -0.61400
C          4.06459       -0.87452       -1.40425
C          4.70173       -2.03277       -1.96193
C          4.26093       -3.25514       -1.64923
O          3.20632       -3.53015       -0.82383
C          2.46800       -2.41200       -0.28753
H          0.66821        0.99836        0.50542
H          0.77159       -0.70943        0.95286
H          0.49366       -0.22877       -0.76162
H          4.47003        0.10707       -1.62230
H          5.55236       -1.89478       -2.61982
H          4.71039       -4.16667       -2.02102
H          2.44674       -2.54404        0.79991
H          1.44321       -2.51721       -0.65952
