20

C          0.92956        0.02339        0.22518
C          2.44886        0.08523       -0.00940
C          3.15199        0.01879        1.35471
C          2.78130        1.41214       -0.73322
C          3.85133        1.35990       -1.81580
C          4.15123       -0.00839       -2.29937
C          3.61901       -1.09833       -1.75456
O          2.75971       -1.13125       -0.70580
H          0.56639        0.88886        0.78817
H          0.64905       -0.88903        0.76396
H          0.39888       -0.01514       -0.73432
H          2.87132        0.86178        1.99589
H          4.24075        0.01851        1.23784
H          2.89375       -0.90735        1.88275
H          3.06075        2.18133        0.00053
H          1.87005        1.81141       -1.19812
H          4.77593        1.82493       -1.45620
H          3.51390        1.96437       -2.66787
H          4.82942       -0.10841       -3.14328
H          3.82182       -2.10107       -2.11238
