16

C          1.13098        0.03529       -0.04378
C          2.62515        0.02360       -0.02031
C          3.33593       -0.39711        1.03811
C          4.83783       -0.41471        1.09803
C          5.36133        0.44404        2.23882
O          4.79196        0.61238        3.31060
C          6.67155        1.03164        2.03923
C          7.75759        1.52230        1.88584
H          0.77707        0.42568       -1.00342
H          0.73212        0.67898        0.74622
H          0.73055       -0.97634        0.07350
H          3.13027        0.38096       -0.91467
H          2.81446       -0.74808        1.92868
H          5.26530       -0.06104        0.15254
H          5.18571       -1.44068        1.26104
H          8.71981        1.96466        1.76678
