21

N          2.32639       -1.43582       -1.85317
C          3.07999       -0.20118       -2.03943
C          2.35169        1.10724       -2.15142
C          3.15295        0.79708       -0.91556
C          4.41964        1.54734       -0.56554
C          4.32319        3.06049       -0.23161
C          5.48196        2.84946        0.76162
C          5.03895        1.37584        0.85180
H          2.21498       -1.92699       -2.73998
H          1.38188       -1.25068       -1.51798
H          3.97768       -0.31451       -2.64364
H          1.27269        1.12538       -2.05422
H          2.74167        1.84608       -2.84181
H          2.59188        0.59226       -0.00881
H          5.17974        1.37106       -1.34356
H          3.38097        3.35774        0.24315
H          4.53298        3.74002       -1.06189
H          5.42298        3.42399        1.68917
H          6.47483        2.98556        0.31781
H          4.30870        1.18660        1.64749
H          5.84803        0.64521        0.93318
