16

O          3.97597       -4.98478       -0.58627
C          4.25517       -3.98785       -1.25218
C          3.27657       -2.85167       -1.44669
C          3.77691       -1.55651       -0.90416
C          4.92792       -0.95615       -1.23539
C          6.00028       -1.41167       -2.17816
C          6.22258       -2.88112       -2.38878
C          5.54334       -3.96261       -1.98441
H          2.35315       -3.12086       -0.91964
H          3.01551       -2.76576       -2.50706
H          3.11146       -1.04719       -0.20860
H          5.11833        0.01980       -0.78705
H          6.94736       -1.01405       -1.78826
H          5.84404       -0.92907       -3.15004
H          7.14063       -3.08589       -2.94213
H          5.93809       -4.95437       -2.19046
