18

C          1.07105       -0.08282       -0.19576
C          2.56402       -0.06147       -0.12043
C          3.36204       -0.36773       -1.15581
C          4.82084       -0.37270       -1.16891
C          5.59475       -0.00201        0.08039
C          5.48354       -0.70723       -2.29937
C          7.00354       -0.70723       -2.29937
C          8.30739       -0.70723       -2.29937
H          0.64900        0.20468        0.77360
H          0.70503       -1.08594       -0.43256
H          0.70618        0.62977       -0.94094
H          2.96095        0.22418        0.84650
H          2.88151       -0.64571       -2.09469
H          4.97696        0.25403        0.94154
H          6.23026        0.87119       -0.10883
H          6.22881       -0.83802        0.39839
H          4.99311       -0.98185       -3.22659
H          9.37242       -0.70703       -2.29869
