18

C          0.91507        0.11677       -0.00635
C          2.43600        0.02475       -0.03492
C          2.90069       -1.40110        0.12535
C          3.69977       -1.83169        1.11008
C          2.96750        0.59972       -1.35110
O          3.09448       -0.06556       -2.38217
C          3.32883        2.08254       -1.34074
O          3.78081        2.53320       -2.60839
H          0.51609       -0.26682        0.93917
H          0.46088       -0.45525       -0.82369
H          0.58497        1.15579       -0.11310
H          2.84429        0.63283        0.78201
H          2.56991       -2.11365       -0.63112
H          4.07098       -1.17028        1.88546
H          4.00550       -2.87390        1.15520
H          4.12711        2.24772       -0.61245
H          2.44772        2.66648       -1.06473
H          4.03001        1.73104       -3.11130
