18

O          1.03050        0.10873       -0.15233
C          2.25295        0.10279       -0.00270
C          2.99934       -1.18706        0.24804
C          3.92087       -1.12187        1.46160
C          5.10470       -0.18569        1.23503
O          4.87527        1.18500        1.53893
C          3.60060        1.74414        1.24011
C          3.05810        1.37222       -0.12513
H          3.55625       -1.44227       -0.66036
H          2.25788       -1.97902        0.40729
H          4.30882       -2.13319        1.63329
H          3.35844       -0.82814        2.35482
H          5.48050       -0.25889        0.20808
H          5.92922       -0.50037        1.88443
H          3.73569        2.83052        1.28201
H          2.90435        1.48719        2.04689
H          3.84053        1.23621       -0.87737
H          2.37782        2.15492       -0.47973
