18

C          0.96373        0.65889        0.77854
C          1.89516        0.09666       -0.00193
C          3.09612       -0.67002        0.49136
C          4.36353        0.01947        0.07861
C          5.61003       -0.34532        0.39738
O          5.94298       -1.43612        1.15896
C          7.21066       -1.47612        1.68810
C          7.73616       -2.56704        2.24723
H          0.13880        1.21410        0.34319
H          1.00524        0.58890        1.86199
H          1.79968        0.20216       -1.08167
H          3.06142       -1.67403        0.05223
H          3.06186       -0.77714        1.58165
H          4.25902        0.91383       -0.53100
H          6.46238        0.22500        0.04237
H          7.75587       -0.54140        1.63955
H          7.18382       -3.49886        2.29475
H          8.73702       -2.54430        2.66549
