16

O          0.92892       -0.06425        0.02706
C          2.34642       -0.06764        0.00333
C          2.85308       -1.15469        0.93715
C          3.28769       -2.08717        1.73817
C          3.79436       -3.17422        2.67199
C          3.85070       -2.66254        4.10194
C          4.35101       -3.71611        5.05391
O          4.69318       -4.84687        4.72445
H          0.64235        0.61887       -0.60036
H          2.71298        0.90832        0.33454
H          2.69034       -0.26296       -1.01659
H          4.78753       -3.49428        2.33583
H          3.12916       -4.04248        2.59791
H          2.85707       -2.34971        4.44179
H          4.51919       -1.79783        4.17949
H          4.40187       -3.40368        6.11088
