18

O          0.76478        0.06175       -0.05538
C          2.20724        0.05376       -0.00825
C          2.91544       -0.96147        0.92880
C          2.20005       -1.22058        2.25626
C          2.24014        0.04911        3.11478
C          2.20932        1.32190        2.26055
C          2.92156        1.06160        0.93159
O          3.98474        0.04494        1.11873
H          0.52901       -0.70456       -0.60670
H          2.61820        0.05976       -1.02569
H          3.28285       -1.85884        0.42226
H          2.68570       -2.03969        2.79821
H          1.16404       -1.52726        2.07399
H          3.18319        0.04465        3.67864
H          1.43903        0.05076        3.86122
H          2.70185        2.13529        2.80482
H          1.17558        1.63728        2.08026
H          3.29688        1.95764        0.42822
