20

C          0.97569       -0.00307        0.06782
C          2.50620       -0.10062        0.02382
C          2.97594       -1.51044       -0.39942
C          2.50467       -2.59963        0.52375
C          1.75118       -3.63492        0.13214
C          3.04102        0.97446       -0.93595
C          4.54638        1.00269       -0.98073
O          5.18946        0.84184       -2.01394
H          0.54883       -0.68916        0.80589
H          0.53782       -0.23870       -0.90845
H          0.65844        1.00839        0.34391
H          2.89111        0.10670        1.03169
H          4.07209       -1.54731       -0.40283
H          2.65419       -1.71163       -1.42927
H          2.81096       -2.53505        1.56625
H          1.42868       -3.74792       -0.89865
H          1.44456       -4.39967        0.83885
H          2.71614        1.96929       -0.60937
H          2.66041        0.81686       -1.95130
H          5.05416        1.19873       -0.02176
