15

N          1.09505        0.05868       -0.00911
C          2.42870        0.08989        0.04866
N          3.20265        1.14491        0.08005
C          4.48235        0.65528        0.10565
C          5.58257        1.55256        0.12012
C          6.88169        1.22300        0.12453
C          4.48777       -0.72077        0.10393
N          3.16361       -1.06507        0.07231
H          0.60959        0.94077        0.12410
H          0.54250       -0.76540        0.18619
H          5.32290        2.60850        0.12116
H          7.21771        0.19238        0.11849
H          7.64201        1.99707        0.12937
H          5.27564       -1.45804        0.11446
H          2.78264       -1.99741        0.04941
