20

C          2.96972       -1.49129       -0.29192
C          2.53961       -0.06358        0.00422
C          3.05073        0.88561       -1.07276
C          2.66502        2.38444       -0.87836
C          4.09927        2.71609       -1.34741
O          4.62932        3.70306       -1.80732
C          4.57285        1.27673       -1.01859
C          5.47623        0.62545       -2.04462
H          2.59097       -2.17146        0.47704
H          4.05973       -1.58094       -0.31854
H          2.58323       -1.82288       -1.26143
H          2.90854        0.23451        0.99223
H          1.44496       -0.02402        0.04164
H          2.73925        0.53801       -2.07001
H          2.47616        2.69759        0.15288
H          1.87132        2.74991       -1.53316
H          5.00519        1.22761       -0.01017
H          5.05487        0.68508       -3.05323
H          5.63266       -0.43067       -1.80488
H          6.45715        1.11144       -2.05702
