14

C          1.03050       -0.07035        0.06419
C          2.55050       -0.07035        0.06419
C          3.85435       -0.07035        0.06419
C          5.30254       -0.07676        0.06539
O          5.89362       -1.12898        0.26832
C          6.09268        1.20384       -0.18171
C          7.59173        1.11027       -0.16547
O          5.49966        2.25828       -0.38374
H          0.65738        0.30317       -0.89346
H          0.65738        0.57228        0.86647
H          0.65733       -1.08645        0.21956
H          7.94220        0.09495        0.02911
H          7.98005        1.76379        0.62020
H          7.97800        1.42606       -1.13822
