16

C         -1.56826        0.83087       -0.30457
C         -0.93043        0.10378        0.90531
C         -0.19396        1.43642        1.18315
C         -0.24338        1.62628       -0.35350
C          0.85281        0.96614       -1.21921
N          1.33508       -0.22991       -1.14232
N          0.97552       -1.19259       -0.20876
C          0.01417       -1.08618        0.65345
H         -2.44592        1.44245       -0.05956
H         -1.80071        0.22175       -1.18247
H         -1.67301       -0.15874        1.66858
H          0.79746        1.35329        1.63769
H         -0.78442        2.16203        1.75634
H         -0.37060        2.67670       -0.63978
H          1.25122        1.60157       -2.02689
H         -0.13011       -1.94828        1.32618
