17

N          1.10424       -1.05810       -0.10569
N          2.44265       -1.18401       -0.25538
C          3.13625       -0.69013        0.72237
C          4.59679       -0.78251        0.76948
C          5.36204       -0.23840        1.71946
N          6.68618       -0.57035        1.56058
C          6.85219       -1.40550        0.36390
C          5.43140       -1.51337       -0.23445
H          0.63595       -1.23529       -0.99696
H          0.81226       -0.13304        0.21020
H          2.65980       -0.18648        1.58356
H          5.06132        0.38236        2.55297
H          7.33977        0.20144        1.67695
H          7.22631       -2.39330        0.65525
H          7.55774       -0.95473       -0.34037
H          5.12858       -2.55867       -0.34507
H          5.38960       -1.02318       -1.21377
