20

C          1.04709        0.61106       -0.67702
C          2.52969        0.52342       -0.55111
C          3.25508       -0.49032       -1.03483
O          4.61675       -0.51397       -0.89693
C          5.25203       -1.35484       -1.88071
C          6.79709       -1.42682       -1.76097
C          6.69751       -2.90596       -2.17220
C          5.25435       -2.88632       -1.63181
H          0.69510        1.56092       -0.26108
H          0.55931       -0.19774       -0.12480
H          0.73894        0.57424       -1.72653
H          3.04007        1.34405       -0.05346
H          2.82178       -1.33949       -1.54578
H          4.94485       -1.08483       -2.90241
H          7.17360       -1.27153       -0.74288
H          7.35350       -0.78391       -2.44803
H          7.38766       -3.58697       -1.66865
H          6.76268       -3.06525       -3.25462
H          5.16818       -3.17388       -0.57793
H          4.53392       -3.46267       -2.21879
