18

C          0.54428        1.05782       -0.23185
C         -0.59662        0.15505        0.13522
C          0.78742       -0.41441       -0.02801
C          1.53056       -0.84170        1.16028
C          2.86743       -0.80524        1.29027
C          3.63292       -1.22344        2.46746
C          4.06765       -2.66340        2.57508
O          5.01430       -1.60892        2.37187
H          0.89649        1.75824        0.51780
H          0.58704        1.44106       -1.24511
H         -1.32950       -0.07125       -0.63184
H         -1.01717        0.25134        1.12926
H          0.96708       -1.01728       -0.91404
H          0.94130       -1.22476        1.99187
H          3.45657       -0.42546        0.45800
H          3.34713       -0.71746        3.38470
H          3.88867       -3.33618        1.74580
H          4.04574       -3.13341        3.55003
