20

C          0.94914       -0.05595        0.00046
C          2.46348       -0.09214       -0.03506
O          2.96830        0.84632        0.91222
C          4.39219        0.85108        0.91690
C          4.89885        1.86037        1.93426
C          5.33346        2.72614        2.80696
C          5.84012        3.73544        3.82432
C          4.72495        4.15094        4.76624
H          0.52646       -0.76551       -0.71693
H          0.58144        0.94762       -0.23659
H          0.58076       -0.30363        1.00122
H          2.81663        0.16934       -1.03904
H          2.81582       -1.09853        0.21688
H          4.76904        1.12696       -0.07432
H          4.76896       -0.14234        1.18488
H          6.23090        4.61102        3.29507
H          6.66404        3.28888        4.39107
H          3.89520        4.60939        4.21740
H          5.09405        4.87757        5.49661
H          4.32823        3.28849        5.31273
