20

C          1.20674       -0.11866        0.05969
N          2.64817       -0.13741        0.26914
N          3.17060        0.96780        0.85046
C          4.46349        1.03893        0.83724
C          5.22115        2.14538        1.49308
C          4.44425        3.21810        2.19239
C          6.56698        2.08504        1.44648
C          7.50597        3.05758        2.09069
H          0.90094       -1.00124       -0.50980
H          0.89490        0.77150       -0.49685
H          0.67829       -0.13829        1.01808
H          3.13051       -0.43025       -0.58097
H          5.07887        0.25652        0.35365
H          3.36178        3.09226        2.10047
H          4.68655        4.20303        1.77855
H          4.67744        3.21676        3.26228
H          7.05918        1.26676        0.92451
H          6.99395        3.86162        2.62662
H          8.14897        3.51187        1.33138
H          8.14588        2.53000        2.80534
