15

C          0.98396        0.64049        0.29416
N          2.37425        0.20809        0.16760
N          3.08652        0.83185       -0.80708
C          4.37906        0.69940       -0.76865
C          5.18578       -0.04379        0.24840
C          6.52382       -0.09671        0.24880
C          4.98976        1.39958       -1.89244
N          5.51992        1.94158       -2.77663
H          0.46825        0.01364        1.02795
H          0.45642        0.55631       -0.66129
H          0.93276        1.67698        0.64054
H          2.37012       -0.80533        0.01742
H          4.62670       -0.54634        1.03001
H          7.14145        0.39667       -0.49475
H          7.04393       -0.64633        1.02931
