16

O          1.00891       -0.15910       -0.00695
C          2.42379        0.01284        0.04151
C          3.35151       -0.69693       -1.01100
C          4.47825       -0.37559        0.05870
C          4.47008        1.15679        0.13657
C          2.94870        1.44200        0.12864
C          3.31062       -0.88266        1.07302
O          3.20446       -1.55936        2.05910
H          0.70908        0.34829       -0.77966
H          3.46078       -0.19278       -1.97692
H          3.14907       -1.75902       -1.19503
H          5.40924       -0.93241        0.00983
H          4.96923        1.61334       -0.72361
H          4.94056        1.51885        1.05609
H          2.65838        2.04751       -0.73549
H          2.62950        1.94516        1.04639
