14

C          1.10372        0.01020        0.04517
C          2.44123       -0.01551        0.04320
C          3.20409       -1.23006       -0.12233
C          4.54294       -1.24777       -0.12293
C          5.30294       -2.55217       -0.30000
C          5.95487       -3.67108       -0.45190
C          6.68369       -4.90228       -0.61153
O          7.67679       -5.13671        0.06202
H          0.57176        0.94799        0.17383
H          0.50607       -0.88729       -0.07829
H          2.98683        0.91733        0.17251
H          2.65132       -2.15854       -0.24884
H          5.14558       -0.35365        0.00171
H          6.28825       -5.59759       -1.36794
