18

C         -1.66152        0.10669        0.76579
C         -1.04756        1.33029        0.12766
C          0.10325        0.79252       -0.71128
C          1.46471        0.94741       -0.06468
O          1.61361       -0.17445        0.80588
C          1.00115       -1.28786        0.13013
C         -0.11594       -0.70955       -0.73783
O         -1.40172       -0.95907       -0.14984
H         -2.73994        0.20695        0.91867
H         -1.19153       -0.13100        1.72587
H         -0.76017        2.08677        0.86384
H         -1.78508        1.78928       -0.54124
H          0.09368        1.25436       -1.70317
H          1.58161        1.87675        0.49965
H          2.26100        0.89913       -0.81732
H          0.65028       -2.00770        0.87504
H          1.77264       -1.75771       -0.48895
H         -0.10517       -1.14657       -1.74062
