18

N          1.57504       -0.17971        0.42351
C          2.90827        0.03954       -0.13742
C          3.66282       -1.14871       -0.67077
C          4.15928       -0.46371        0.57078
N          5.33861        0.40465        0.51539
C          4.77475        1.62262       -0.05134
C          3.75745        2.43162        0.70681
C          3.31183        1.50614       -0.39601
H          1.39632       -1.16844        0.58633
H          0.86371        0.13455       -0.23482
H          4.21120       -1.02365       -1.59649
H          3.24167       -2.13989       -0.55098
H          4.01744       -0.97061        1.52096
H          6.04052        0.00428       -0.11017
H          5.42209        2.18103       -0.71985
H          3.70974        3.49780        0.52282
H          3.52595        2.14968        1.72784
H          2.97273        1.95770       -1.32231
