22

C          0.96010       -0.71160       -0.08098
C          2.46290       -0.51900       -0.11706
O          2.72501        0.72772       -0.75160
C          4.12149        0.99494       -0.87864
C          4.28387        2.31180       -1.64374
C          3.68822        2.21522       -3.05801
C          5.75122        2.74230       -1.66738
O          5.90226        4.00551       -2.30476
H          0.69535       -1.66573        0.38217
H          0.54555       -0.68212       -1.09454
H          0.48265        0.09943        0.47918
H          2.92976       -1.33173       -0.68399
H          2.86759       -0.50968        0.90094
H          4.60995        0.17226       -1.41752
H          4.56153        1.07331        0.12112
H          3.70888        3.08769       -1.11887
H          3.36819        1.19698       -3.30373
H          4.39449        2.53377       -3.83192
H          2.80646        2.85941       -3.13580
H          6.14759        2.83309       -0.65053
H          6.36807        2.01615       -2.20656
H          5.26962        4.62190       -1.89700
