22

C          1.02281        0.02741       -0.12039
O          2.44195       -0.04517       -0.08184
C          2.91881       -1.26683       -0.65051
C          4.45318       -1.28641       -0.61833
C          4.98688       -1.14397        0.80864
C          4.99125       -2.57008       -1.25840
O          4.55491       -2.64339       -2.61562
C          5.01286       -3.82698       -3.25449
H          0.71442        0.98212        0.31326
H          0.58316       -0.78314        0.46901
H          0.66324       -0.01989       -1.15296
H          2.55872       -1.33959       -1.68326
H          2.51563       -2.11184       -0.07919
H          4.80806       -0.42344       -1.19732
H          4.64014       -1.96548        1.44481
H          4.66139       -0.20266        1.26303
H          6.08212       -1.15042        0.81500
H          4.63056       -3.45005       -0.71152
H          6.08743       -2.56963       -1.23519
H          4.65786       -3.81877       -4.28859
H          4.60884       -4.71184       -2.75377
H          6.10694       -3.86211       -3.26010
