18

O          0.72942       -0.02860        0.15694
C          2.17792       -0.02424        0.03042
C          2.60706        0.01388       -1.44163
C          2.09623       -1.19635       -2.17369
C          2.88152       -2.05739       -2.83364
C          2.92042        1.01834        0.89796
O          3.81597        0.00699        1.42071
C          2.94116       -1.03617        0.91576
H          0.43279        0.79758       -0.26184
H          3.69911        0.08194       -1.52465
H          2.19709        0.91025       -1.92266
H          1.02055       -1.36683       -2.16476
H          3.95883       -1.93319       -2.87779
H          2.45564       -2.91285       -3.34973
H          2.32976        1.47488        1.69897
H          3.46200        1.80009        0.35731
H          2.35903       -1.48715        1.72636
H          3.50316       -1.81646        0.39549
