16

C          1.14420       -0.07697       -0.02446
C          2.66052       -0.16673        0.00527
C          3.13909       -1.56724        0.30486
O          2.41030       -2.52984        0.50072
C          4.57255       -1.75469        0.35067
C          5.85445       -1.98736        0.40194
C          7.34886       -2.25861        0.46171
O          8.01827       -1.37655       -0.42433
H          0.82653        0.94603       -0.24647
H          0.71462       -0.36779        0.93987
H          0.72618       -0.73930       -0.78974
H          3.05175        0.50768        0.77413
H          3.06343        0.13817       -0.96667
H          7.56250       -3.29118        0.17071
H          7.72117       -2.08870        1.47573
H          7.63426       -1.52310       -1.30562
