22

C         -0.01983        2.77394        1.78677
C          0.33400        1.34835        1.42517
C          0.26957        1.05310       -0.04891
C         -0.97259        1.09657       -0.91476
C         -0.47001       -0.21293       -0.36256
C          0.53362       -1.15187       -0.94795
C          1.73215       -0.31955       -1.40945
C          1.57957        1.08007       -0.80847
H          0.34071        3.49254        1.04989
H          0.41704        3.02327        2.76248
H         -1.10615        2.88267        1.88199
H         -0.31733        0.67125        1.99279
H          1.34869        1.13361        1.78177
H         -0.87275        1.27174       -1.98310
H         -1.86912        1.53007       -0.49677
H         -1.12059       -0.69756        0.34958
H          0.86289       -1.82794       -0.14663
H          0.12134       -1.76700       -1.75103
H          1.76071       -0.26334       -2.50111
H          2.67286       -0.77807       -1.08703
H          1.54335        1.83567       -1.60639
H          2.42859        1.33322       -0.17015
