20

C          0.89806       -0.00669        0.02044
C          2.43323        0.03398        0.06725
C          2.92439        1.39259       -0.46981
O          2.48958        1.59264       -1.81175
C          2.97204       -0.24236        1.49671
C          2.53616       -1.60129        2.05033
C          4.49113       -0.19084        1.50715
C          5.79421       -0.14665        1.51611
H          0.52310        0.22238       -0.98260
H          0.46487        0.72095        0.71537
H          0.51468       -0.99788        0.27852
H          2.79673       -0.74759       -0.61415
H          4.01559        1.46605       -0.47284
H          2.53367        2.21626        0.13623
H          2.90431        0.90079       -2.35530
H          2.60957        0.54005        2.17620
H          2.82474       -2.41610        1.37657
H          1.45361       -1.64676        2.20023
H          3.00481       -1.79597        3.02207
H          6.85944       -0.11112        1.52662
