22

C          0.95533       -0.50509       -0.11596
C          2.22493        0.22718        0.29563
C          2.93192        0.92322       -0.86083
C          2.14514        1.95695       -1.65193
C          3.20722        2.41096       -0.69943
C          3.98565        0.12061       -1.61868
C          5.17676       -0.28446       -0.75833
O          3.39480       -1.03540       -2.20099
H          0.58014       -1.10223        0.72164
H          1.11887       -1.17608       -0.96265
H          0.16771        0.20041       -0.39793
H          2.90133       -0.48258        0.78069
H          1.96020        0.95765        1.07034
H          1.11371        2.15861       -1.38545
H          2.33624        2.04523       -2.71619
H          2.88927        2.91419        0.20689
H          4.11757        2.82588       -1.12025
H          4.36780        0.71947       -2.45371
H          4.89377       -0.99690        0.02291
H          5.63999        0.58500       -0.28305
H          5.92888       -0.79100       -1.37278
H          3.21561       -1.66538       -1.48509
