16

O          1.78473       -1.18391       -0.35333
C          2.59027       -0.10561        0.09339
C          3.05383        0.63909       -1.11029
C          4.34283        0.85055       -1.42508
C          4.81847        1.57087       -2.59177
C          6.12341        1.73237       -2.85135
C          3.81883        2.17254       -3.56599
C          2.96133        2.68865       -4.40168
H          1.49346       -1.66286        0.43914
H          3.42034       -0.50432        0.68396
H          1.98223        0.54752        0.72709
H          2.25844        1.01453       -1.75019
H          5.11201        0.45050       -0.76697
H          6.89296        1.32975       -2.20201
H          6.45611        2.27458       -3.73135
H          2.25902        3.10671       -5.08411
