20

C          0.92351        0.12334        0.13966
C          2.40078       -0.01198       -0.04746
C          3.28664        0.53924        0.79741
C          4.75498        0.48486        0.73366
C          5.53990       -0.17397       -0.31129
C          5.30355       -0.14654       -1.63088
C          5.40179        1.03166        1.79130
C          6.87345        1.14590        2.04875
H          0.39791       -0.29010       -0.72695
H          0.63070        1.17402        0.23457
H          0.59394       -0.42646        1.02659
H          2.72135       -0.58798       -0.90782
H          2.87260        1.07988        1.64895
H          6.41755       -0.72243        0.02439
H          4.46538        0.38847       -2.06332
H          5.96457       -0.67041       -2.31446
H          4.81433        1.48204        2.59099
H          7.49938        0.77305        1.23582
H          7.13179        0.59628        2.95973
H          7.13238        2.19819        2.20481
