20

C          0.99102        0.27048       -0.19678
O          2.40756        0.18540       -0.29055
C          2.87985       -1.05938       -0.81526
C          2.46198       -1.24082       -2.27377
C          4.39986       -1.03442       -0.73725
C          5.03747       -0.93878        0.65583
O          5.94353       -2.03146        0.34136
C          5.10841       -2.39573       -0.78723
H          0.74103        1.11915        0.44540
H          0.56382       -0.63691        0.24089
H          0.55812        0.45548       -1.18392
H          2.48149       -1.87748       -0.20244
H          2.73157       -0.36004       -2.86757
H          1.37843       -1.36651       -2.36158
H          2.93875       -2.11831       -2.72105
H          4.84206       -0.30570       -1.43005
H          4.39997       -1.19354        1.50764
H          5.57705       -0.00868        0.85721
H          4.50014       -3.27423       -0.54931
H          5.69360       -2.58514       -1.69133
