20

N          1.13445        0.12080        0.37166
C          2.56764       -0.04065        0.06067
C          2.84532       -1.44762       -0.51397
C          2.51879       -1.31164       -1.97785
C          3.54232       -0.91116       -2.99782
C          2.67153        0.14272       -2.35091
C          3.01522        0.91780       -1.09412
N          4.44442        1.22676       -1.08427
H          0.83253       -0.63642        0.98280
H          0.59351        0.01426       -0.48816
H          3.13034        0.13660        0.98326
H          2.24634       -2.22566       -0.03005
H          3.90169       -1.71074       -0.38110
H          1.62063       -1.82945       -2.28423
H          3.34126       -1.15004       -4.03740
H          4.59293       -0.97098       -2.74511
H          1.88704        0.60774       -2.93417
H          2.45841        1.86103       -1.05872
H          4.98147        0.36320       -1.05636
H          4.66446        1.71460       -0.21691
