18

C          2.67126       -0.11360        2.75214
O          2.36089       -1.27308        1.98593
C          2.89440       -1.19926        0.67162
C          4.41885       -1.29922        0.57310
O          5.06472       -0.46140       -0.05867
C          5.11589       -2.42353        1.28557
C          4.41818       -3.72297        1.53315
C          6.38907       -2.22145        1.66327
H          2.17237       -0.19883        3.72077
H          2.30965        0.79050        2.25213
H          3.74927       -0.04236        2.92479
H          2.56763       -0.26829        0.19296
H          2.46352       -2.01341        0.07846
H          3.39702       -3.74509        1.14749
H          4.36922       -3.93217        2.60707
H          4.95911       -4.54097        1.04495
H          6.90071       -1.28183        1.47067
H          6.95685       -2.99530        2.16984
