19

C          1.02767        0.00350        0.03735
N          2.48167        0.00037        0.04121
C          3.10889       -1.28333        0.30647
N          3.11691        1.16796       -0.21040
C          4.40985        1.18069       -0.21423
N          5.15290        2.30183       -0.45436
C          6.51268        2.43498       -0.48332
C          7.20304        3.55302       -0.72023
H          0.58856       -0.97786        0.24617
H          0.65103        0.32565       -0.93927
H          0.64862        0.69545        0.79694
H          2.38769       -2.08934        0.47860
H          3.73593       -1.22712        1.20333
H          3.72999       -1.59253       -0.54082
H          5.03589        0.29261       -0.02485
H          4.60657        3.13787       -0.63168
H          7.04723        1.50704       -0.28690
H          6.71159        4.49880       -0.92061
H          8.28843        3.54026       -0.71849
