14

C          1.03730        0.00273       -0.11419
C          2.37106        0.06500       -0.01755
C          3.24829       -0.56922       -0.97967
C          4.59498       -0.58117       -0.99701
C          5.43750        0.08847        0.01923
O          6.66252        0.05902       -0.02424
C          5.26679       -1.31332       -2.10749
O          4.66367       -1.90061       -2.99965
H          0.40667        0.48943        0.62454
H          0.53390       -0.52620       -0.91836
H          2.78841        0.61568        0.81978
H          2.72701       -1.09797       -1.78207
H          4.91619        0.62152        0.82686
H          6.36944       -1.29720       -2.08168
