18

C          2.72706       -0.75003        1.23351
C          2.26188       -0.14280        0.13471
C          3.10636        0.15186       -1.08161
C          3.19970        1.65255       -1.38523
C          2.36293        2.13362       -2.56969
O          2.25276        1.24814       -3.68425
C          2.25537       -0.08031       -3.40474
C          2.61870       -0.63944       -2.24952
H          2.07938       -0.95453        2.08307
H          3.76251       -1.06291        1.31494
H          1.21151        0.14777        0.09773
H          4.12966       -0.19165       -0.87293
H          4.24993        1.88058       -1.60787
H          2.95106        2.26052       -0.50511
H          2.81463        3.05481       -2.95779
H          1.35139        2.40011       -2.24451
H          1.94848       -0.66095       -4.26766
H          2.60322       -1.72194       -2.15490
