18

O          2.59023        3.19501       -0.57834
C          2.19687        2.56233        0.63201
C          2.87568        1.20122        0.74281
C          4.40970        1.29327        0.75837
C          5.06703       -0.09125        0.85078
O          5.41783       -0.32836        2.23324
C          5.44970        0.94215        2.76639
C          4.93241        1.90349        2.01172
H          2.17568        4.07542       -0.58701
H          1.10960        2.43825        0.61825
H          2.45961        3.21175        1.47196
H          2.57618        0.58971       -0.11727
H          2.50982        0.69261        1.64380
H          4.77223        1.81399       -0.13387
H          5.99713       -0.11865        0.26766
H          4.42322       -0.90354        0.49641
H          5.86138        1.01031        3.76003
H          4.85906        2.94659        2.28200
