14

O          1.88594        0.38885        1.22006
C          2.83368       -0.00227        0.22446
C          3.39529        1.13259       -0.59515
C          4.26923        0.46957        0.42855
C          5.14543       -0.66913        0.03939
O          6.35686       -0.61284       -0.03926
C          4.29634       -1.84014       -0.27303
C          3.02631       -1.41008       -0.17112
H          1.33338        1.12779        0.90981
H          3.07682        2.14606       -0.37683
H          3.61410        0.96828       -1.64418
H          4.49954        0.97026        1.36043
H          4.67830       -2.80705       -0.52301
H          2.17677       -2.06587       -0.31654
