16

O          0.97533       -0.09661        0.05160
C          2.39271       -0.08434        0.04627
C          2.89937       -1.44949        0.48223
C          3.33398       -2.62052        0.85620
C          3.84064       -3.98567        1.29216
C          4.95352       -3.65349        2.22892
C          4.70783       -3.02865        3.58071
O          4.97158       -4.43041        3.43589
H          0.68814        0.78428       -0.23816
H          2.74846        0.68344        0.73949
H          2.74758        0.13930       -0.96401
H          4.20354       -4.55435        0.43127
H          3.03470       -4.54343        1.77965
H          5.89741       -3.46697        1.73135
H          3.70142       -2.72108        3.83894
H          5.49033       -2.41070        4.00689
