18

C          1.16262        0.02224       -0.42066
O          2.58114        0.04509       -0.32157
C          3.11261       -1.05963        0.28092
C          4.23030       -1.06576        1.02481
C          4.54982       -2.38437        1.59093
C          4.89021       -3.55328        0.71078
C          3.44933       -3.29639        1.06545
C          2.53673       -2.45403        0.18642
H          0.82361        1.02472       -0.69782
H          0.69932       -0.23445        0.53889
H          0.84392       -0.67582       -1.20122
H          4.82862       -0.18602        1.22014
H          4.78757       -2.42325        2.64621
H          5.37740       -4.40396        1.17513
H          5.22046       -3.36474       -0.30424
H          2.93415       -3.94567        1.75756
H          1.51428       -2.49663        0.57075
H          2.55495       -2.81722       -0.84646
