18

C          0.90015        0.03374       -0.14799
C          2.39819        0.04838       -0.10482
C          3.11712        1.18612       -0.11008
C          4.61265        1.20102        0.00041
O          5.10626       -0.02652        0.55018
C          4.62590       -1.15786       -0.19235
C          3.09632       -1.28834       -0.05147
O          2.78312       -1.87850        1.20940
H          0.48313        1.04562       -0.18560
H          0.49774       -0.45581        0.74490
H          0.54779       -0.50751       -1.03113
H          2.62321        2.15198       -0.17122
H          4.92710        2.00689        0.66971
H          5.06988        1.37759       -0.97966
H          5.12196       -2.04256        0.22072
H          4.92678       -1.05159       -1.24074
H          2.72155       -1.95877       -0.83225
H          3.21262       -1.30775        1.87241
