18

N          1.06433       -0.11923        0.25840
N          2.39629        0.06796        0.12599
C          3.09240       -1.02138        0.21627
C          4.56553       -0.99027        0.12010
C          5.28212       -2.12075        0.20095
C          6.74691       -2.18543        0.14951
C          7.53549       -1.55673        1.26942
C          7.47076       -3.05084        1.14700
H          0.57894        0.76242        0.07777
H          0.69738       -0.79113       -0.41753
H          2.62766       -2.01104        0.37472
H          5.02586       -0.01710        0.00966
H          4.76833       -3.07464        0.30653
H          7.16831       -2.12881       -0.84989
H          7.00366       -1.09392        2.09386
H          8.46626       -1.06236        1.01549
H          6.89847       -3.59309        1.89125
H          8.36427       -3.56860        0.81632
