18

O          0.90702       -0.24551        0.26994
C          2.32696       -0.10877        0.20976
C          2.70521        1.23976       -0.43846
C          3.62900        1.23429       -1.63677
C          4.07927        2.40113       -2.13480
C          4.03448       -0.06346       -2.28889
C          3.58710       -1.30374       -1.58512
C          2.83017       -1.32772       -0.48181
H          0.55774        0.54997        0.70432
H          2.69170       -0.12390        1.24385
H          3.17985        1.84972        0.34386
H          1.78906        1.77794       -0.71987
H          3.79518        3.35357       -1.69708
H          4.73221        2.43346       -3.00228
H          5.12872       -0.09902       -2.36457
H          3.63307       -0.09084       -3.30949
H          3.89589       -2.24695       -2.02874
H          2.54226       -2.28409       -0.05261
