16

C          1.11667       -0.10973       -0.02062
C          2.60708       -0.11334        0.02241
C          3.31069       -0.59036        1.05460
O          4.67984       -0.51893        1.08519
C          5.34826       -1.04751        2.16114
C          6.57914       -0.64391        2.48660
C          7.27194       -1.17292        3.60637
C          7.86538       -1.60041        4.55843
H          0.77275        0.32455       -0.96492
H          0.70585        0.49609        0.79326
H          0.71832       -1.12631        0.04562
H          3.13481        0.31493       -0.82599
H          2.84932       -1.01701        1.93501
H          4.80620       -1.80875        2.70610
H          7.06796        0.12722        1.89917
H          8.39882       -1.96797        5.40368
