18

C          2.62612       -1.17738        0.09790
C          2.32171        0.11822       -0.05480
C          3.20236        1.12936       -0.76063
C          2.46183        1.77144       -1.93900
O          1.44845        2.67293       -1.49578
C          1.98965        3.67008       -0.64062
O          2.56139        3.10815        0.53193
C          3.64094        2.23329        0.20765
H          1.94713       -1.84478        0.62069
H          3.54809       -1.60138       -0.28591
H          1.38326        0.49381        0.35395
H          4.09439        0.61556       -1.14082
H          1.98562        1.01154       -2.56839
H          3.16409        2.32319       -2.57677
H          1.17009        4.32507       -0.33138
H          2.72402        4.28496       -1.17541
H          4.02437        1.80963        1.14244
H          4.45151        2.82784       -0.23211
