18

C          1.05995       -0.02114        0.05523
C          2.59620        0.03843        0.05213
C          3.13597        0.59596       -1.27348
O          3.10326        0.77309        1.17977
C          2.75956        2.08855        1.30198
C          3.18425        2.82673        2.32754
C          3.10286       -1.38784        0.19165
C          3.53747       -2.61129        0.31133
H          0.61102        0.96458       -0.10394
H          0.68646       -0.38660        1.01938
H          0.68183       -0.68655       -0.72958
H          2.76879        1.60879       -1.46948
H          2.84480       -0.03266       -2.12272
H          4.23074        0.65560       -1.25418
H          2.12751        2.50128        0.52967
H          3.81970        2.39779        3.09489
H          2.90497        3.87045        2.41782
H          3.89660       -3.60889        0.41629
