16

C          2.05511        0.03099        0.77857
O          2.10271        0.00980       -0.65685
C          0.80317        0.00746       -0.06511
C         -0.04175        1.23407       -0.25037
C         -1.41329        0.73588        0.10486
O         -2.08885       -0.03183       -0.89173
C         -1.40104       -0.76482        0.12580
C         -0.01860       -1.24297       -0.21345
H          2.32394        0.95265        1.28042
H          2.34176       -0.86915        1.30833
H         -0.01626        1.57562       -1.28919
H          0.26806        2.05594        0.40307
H         -1.96668        1.29894        0.84124
H         -1.94332       -1.31020        0.88064
H          0.01556       -1.61593       -1.24332
H          0.30628       -2.03693        0.46522
