16

C          1.09057        0.00490        0.09823
C          2.57738       -0.16976        0.02389
C          3.14069       -1.38067       -0.11287
O          4.48762       -1.61351       -0.19584
C          5.36282       -0.59459        0.33464
C          4.86565        0.81235        0.25277
O          4.38637        1.26686       -1.01417
C          3.40332        1.04266        0.01972
H          0.55647       -0.93332       -0.08553
H          0.75166        0.73289       -0.64582
H          0.80449        0.36593        1.09150
H          2.58675       -2.30408       -0.22194
H          6.32386       -0.68411       -0.18090
H          5.53529       -0.84572        1.38801
H          5.43598        1.50790        0.85135
H          2.95690        1.92308        0.46771
