20

C          1.04068        0.19068        0.00234
C          2.51467       -0.03080       -0.08194
C          3.13998       -0.69235       -1.29635
C          2.42571       -1.03608       -2.56586
O          4.12383       -1.67910       -0.92113
C          3.41461        0.77352       -0.99826
C          4.80894        1.17398       -0.62894
O          2.71435        1.78325       -1.75269
H          0.58697       -0.57330        0.64377
H          0.54235        0.14403       -0.97005
H          0.82494        1.16776        0.44560
H          2.91957       -0.26357        0.89744
H          3.04049       -1.71857       -3.16280
H          2.23498       -0.15957       -3.19363
H          1.47501       -1.53753       -2.36611
H          3.69236       -2.50466       -0.65235
H          5.16251        1.96510       -1.30091
H          5.51955        0.34766       -0.71978
H          4.84991        1.55672        0.39461
H          2.59385        2.58870       -1.21984
