20

C          1.07662        1.32081        0.98532
C          2.56934        1.31974        0.93433
C          3.31909        0.25587        1.25984
C          4.81715        0.23340        1.21304
O          5.29093        0.31799        2.55262
C          6.64967        0.46408        2.76572
C          7.65673        0.27691        1.66652
C          7.05233        0.75800        4.00832
H          0.70069        2.33644        0.82488
H          0.71325        0.98081        1.96007
H          0.66448        0.68174        0.19880
H          3.05065        2.25096        0.64119
H          2.83939       -0.66802        1.57455
H          5.19419        1.06906        0.61132
H          5.13675       -0.71491        0.76591
H          7.22459        0.08611        0.68305
H          8.30632       -0.57438        1.89707
H          8.28240        1.17173        1.57085
H          6.32801        0.88760        4.80658
H          8.10173        0.86921        4.25830
