17

N          0.95434        0.11021        1.26297
C          2.22597       -0.01374        1.11923
N          2.92457       -1.18240        0.92845
N          4.30723       -1.12253        0.56759
C          4.93185        0.22611        0.56572
C          4.51870        0.98806        1.84976
C          3.16694        1.22208        1.10342
C          4.03283        1.23151       -0.19800
H          0.50973       -0.81045        1.23803
H          2.39471       -1.97692        0.57717
H          4.82266       -1.77547        1.16693
H          5.99175        0.23256        0.30444
H          5.09641        1.90402        2.03361
H          4.48343        0.41385        2.78312
H          2.66660        2.16619        1.34089
H          4.50647        2.19898       -0.41402
H          3.54802        0.87380       -1.11281
