18

C          0.97364       -0.61698       -1.05665
C          2.46671       -0.61731       -1.09072
C          3.20313        0.50526       -1.11500
C          4.70422        0.52480       -1.12689
C          5.23757        1.23093       -2.33856
C          6.02859        2.30999       -2.27412
C          6.55854        2.97236       -3.53540
C          7.01313        3.54053       -4.61733
H          0.60242       -1.64682       -1.03867
H          0.56178       -0.12822       -1.94463
H          0.60360       -0.11357       -0.15819
H          2.95610       -1.58884       -1.08907
H          2.70438        1.47322       -1.10678
H          5.10857       -0.49433       -1.11318
H          5.04921        1.01264       -0.20699
H          4.96873        0.81459       -3.30706
H          6.33131        2.75787       -1.33291
H          7.38329        4.00354       -5.50212
