19

C          1.09764        0.08862        0.46607
N          2.53219        0.16063        0.19991
C          3.20753       -0.77213        0.78372
N          4.58247       -0.91947        0.74885
N          5.28907        0.08139        0.01596
C          5.29776       -1.71753        1.73992
C          5.52479       -3.09546        1.18652
C          5.07113       -4.22611        1.74748
H          0.66555        1.09029        0.37477
H          0.87004       -0.26815        1.47803
H          0.60714       -0.56180       -0.26440
H          2.72198       -1.55895        1.39010
H          4.60101        0.80388       -0.24515
H          5.57071       -0.31509       -0.88297
H          4.73201       -1.75091        2.67901
H          6.26747       -1.26337        1.97239
H          6.12106       -3.15248        0.28224
H          4.48156       -4.21798        2.65695
H          5.29130       -5.19086        1.29906
