20

N          2.77304        1.24137       -0.45634
C          2.37891       -0.06640        0.06106
C          2.86772       -0.25020        1.49326
C          2.48751       -1.60380        2.09956
N          1.77097       -1.19226        3.34017
C          2.58536        0.00328        3.84379
C          2.14638        0.63419        2.49924
C          0.82250       -0.09956        2.83797
H          2.46477        1.32910       -1.42467
H          3.79004        1.31244       -0.47718
H          2.81039       -0.84455       -0.57865
H          1.28974       -0.15218       -0.00678
H          3.95354       -0.09604        1.54763
H          3.37264       -2.20087        2.34411
H          1.83346       -2.20271        1.45605
H          3.65588       -0.18129        3.98961
H          2.19320        0.47113        4.75633
H          2.15354        1.71881        2.40558
H          0.16908       -0.38840        2.00858
H          0.19763        0.35471        3.61854
