16

O          1.49677       -0.51852       -0.91304
C          2.28962       -0.04644       -0.10408
C          3.24175        1.10818       -0.37329
C          2.98704        2.18934        0.68366
O          3.63871        3.41228        0.33208
C          3.09083        3.98695       -0.86079
C          3.00352        2.98531       -1.97407
C          3.08894        1.66275       -1.76481
H          2.37674       -0.49249        0.90218
H          4.26375        0.72359       -0.27445
H          3.39192        1.86573        1.64944
H          1.91636        2.37856        0.83802
H          3.74883        4.81007       -1.15570
H          2.10194        4.40471       -0.64330
H          2.86680        3.36773       -2.98147
H          3.03830        0.96768       -2.59954
