19

N          1.03333       -0.08281        0.03737
C          2.49518       -0.06907        0.09513
C          3.11936        0.95695       -0.91024
C          2.67589       -0.04654       -2.04128
C          3.15193       -1.07606       -0.93566
C          4.61007       -0.77488       -0.83029
C          5.58148       -1.68490       -0.80662
C          4.64947        0.72883       -0.76528
H          0.60078        0.68242        0.55356
H          0.62193       -0.93835        0.40815
H          2.89435       -0.07466        1.11460
H          2.74982        1.98182       -0.93536
H          3.25663       -0.01801       -2.97036
H          1.61671       -0.05990       -2.31880
H          2.82364       -2.11333       -0.98388
H          5.36490       -2.74704       -0.86540
H          6.62241       -1.38792       -0.72906
H          5.19937        1.16866       -1.60169
H          5.02318        1.10116        0.19247
