20

C          0.87704       -0.01126       -0.00771
O          2.29565        0.02807        0.08786
C          2.77575       -0.86250        1.09757
C          4.31438       -0.85317        1.10765
C          4.84829        0.55067        1.40723
C          4.88012       -1.86020        2.12505
C          4.44193       -3.27159        1.76957
C          4.06605       -4.48228        1.46464
H          0.56446        0.68606       -0.78917
H          0.42153        0.29530        0.93903
H          0.53878       -1.01535       -0.28190
H          2.39778       -1.86696        0.87766
H          2.38455       -0.54919        2.07246
H          4.66299       -1.12420        0.10084
H          4.51718        0.89739        2.39220
H          4.50390        1.27349        0.66039
H          5.94298        0.56035        1.39439
H          4.53500       -1.62375        3.13826
H          5.97562       -1.82521        2.12820
H          3.76209       -5.47242        1.21347
