16

O          0.94515        0.39256       -0.08371
C          2.33885        0.12184       -0.04831
C          3.06363        1.41585       -0.20941
C          4.39905        1.60639       -0.23132
C          5.36202        0.52143       -0.09320
C          6.69936        0.60730       -0.10657
C          4.84083        3.03293       -0.40992
O          4.07878        3.98650       -0.53208
H          0.48654       -0.45734        0.02196
H          2.57192       -0.56512       -0.86723
H          2.56990       -0.34217        0.91503
H          2.40839        2.28115       -0.31913
H          4.94746       -0.47741        0.03576
H          7.25053        1.53279       -0.22684
H          7.30166       -0.29028        0.00814
H          5.92777        3.19595       -0.42618
