17

N          1.09437        0.06216       -0.12195
C          2.37959        0.11834       -0.12733
N          3.04933        1.23239        0.24743
C          4.00983        1.80833       -0.68390
C          5.27816        1.00467       -0.75228
C          5.45037       -0.29439       -0.44452
C          4.40927       -1.28587       -0.01070
N          3.10422       -0.94816       -0.51444
H          0.77439        0.98296        0.19678
H          3.54431        1.05951        1.11603
H          4.25938        2.81142       -0.32053
H          3.57615        1.92696       -1.68360
H          6.14752        1.56335       -1.09411
H          6.45278       -0.70754       -0.54027
H          4.40048       -1.37176        1.08141
H          4.68534       -2.26847       -0.40989
H          2.49690       -1.74527       -0.67117
