17

N          2.61625        0.91999        0.83886
C          2.43586       -0.20382       -0.08657
C          3.11370       -1.44320        0.47906
N          4.39983       -1.43756        0.74828
C          4.67216       -2.76623        1.35651
C          3.36852       -3.50115        1.27224
C          2.73825       -3.79277       -0.05161
N          2.36542       -2.59057        0.70195
H          2.39155        1.78645        0.35395
H          3.61298        0.96655        1.06480
H          2.89980        0.02645       -1.05086
H          1.36986       -0.39421       -0.24216
H          4.98716       -2.63665        2.39637
H          5.45909       -3.28217        0.79797
H          3.04986       -4.01009        2.16823
H          1.94014       -4.51954       -0.09900
H          3.27616       -3.59681       -0.96914
