16

C          0.92059       -0.16994       -0.01688
C          2.38717        0.01177       -0.03661
C          3.21417        1.12239       -0.04177
C          2.80880        2.55155       -0.01654
O          2.04170        2.90176       -1.16223
C          4.54113        0.60519       -0.06779
C          4.43033       -0.76470       -0.07173
O          3.12605       -1.13209       -0.05509
H          0.39819        0.79100       -0.00302
H          0.61864       -0.73301        0.87153
H          0.59331       -0.72212       -0.90342
H          3.68505        3.20736        0.01500
H          2.20623        2.75976        0.87320
H          2.54160        2.58644       -1.93444
H          5.46702        1.16402       -0.07509
H          5.14465       -1.57587       -0.08237
