20

C          0.84208       -0.18544        0.02905
C          2.36062       -0.05199       -0.04859
O          2.81983        0.93755        0.87996
C          2.78636        2.26749        0.50665
C          3.15259        2.66823       -0.89143
C          2.54991        3.18182        1.45333
C          3.01333       -1.34255        0.37659
C          3.83535       -2.07575       -0.38641
H          0.35505        0.74990       -0.26525
H          0.51267       -0.40457        1.05136
H          0.48015       -0.98234       -0.62989
H          2.65425        0.18062       -1.07738
H          3.82219        1.94446       -1.36467
H          3.68605        3.62602       -0.89732
H          2.25223        2.77565       -1.50441
H          2.34285        2.87801        2.47466
H          2.56270        4.24450        1.23752
H          2.80635       -1.67242        1.39286
H          4.09285       -1.78082       -1.39836
H          4.28185       -2.98621        0.00134
