15

N          1.07871        0.11315        0.26498
C          2.42107        0.00043        0.10738
C          3.17377       -1.10486        0.00557
C          4.62787       -0.77209       -0.12581
C          4.61422        0.76591       -0.16416
N          3.20470        1.12008       -0.02075
C          2.62603       -2.51853       -0.10358
N          2.17164       -3.69129       -0.19413
H          0.55333       -0.72012        0.00608
H          0.72444        0.94528       -0.19999
H          5.06626       -1.18901       -1.03823
H          5.19454       -1.13391        0.73780
H          4.99718        1.13663       -1.12088
H          5.21477        1.19725        0.64398
H          2.97878        1.83296        0.66782
