15

C          2.19665       -0.06503       -0.05637
C          1.35370        1.24620       -0.05019
C         -0.01223        0.71967       -0.00032
C         -1.32619        1.07092        0.12270
N         -2.11527       -0.06816        0.07526
C         -1.27649       -1.07905       -0.08901
N         -0.00515       -0.62000       -0.13627
N          1.26556       -1.21465       -0.25542
H          2.71246       -0.17570        0.90522
H          2.95528       -0.04358       -0.84521
H          1.51994        1.82011       -0.96698
H          1.59126        1.86339        0.82084
H         -1.76383        2.05336        0.24135
H         -1.53942       -2.12321       -0.17363
H          1.42948       -1.89819        0.48105
