19

N          1.04696       -0.14367       -0.14230
C          2.44886        0.15132       -0.08861
C          3.30602       -0.61097       -1.15226
C          4.40199       -0.28130       -0.06607
C          3.25519       -0.72321        0.92499
C          4.47153        1.26714        0.01693
C          2.98826        1.51388       -0.00489
C          2.29648        2.65151        0.04899
H          0.83176       -1.13492       -0.22561
H          0.57512        0.31396       -0.91981
H          3.43050       -0.12874       -2.12753
H          3.09165       -1.67481       -1.31288
H          5.33226       -0.84810       -0.07446
H          3.33290       -0.34985        1.95145
H          3.03602       -1.79762        0.95901
H          4.98074        1.69075       -0.85288
H          4.93809        1.59559        0.94940
H          2.80187        3.60901        0.11704
H          1.21135        2.65612        0.04024
