16

C          0.93602       -0.07767       -0.05676
C          2.46474       -0.08023       -0.02257
C          2.95890       -0.48011        1.36516
C          4.44925       -0.30762        1.49124
O          5.15125       -1.43844        1.25619
O          4.98812        0.75245        1.77335
C          2.97140       -1.05302       -1.07489
C          3.40601       -1.88747       -1.97757
H          0.52803        0.62708        0.67493
H          0.53153       -1.07205        0.16796
H          0.56619        0.21041       -1.04710
H          2.83045        0.92165       -0.27926
H          2.68091       -1.50876        1.62432
H          2.50210        0.15661        2.13366
H          4.60042       -2.19340        0.97144
H          3.76154       -2.55714       -2.72745
