16

O          1.65722        0.05724       -1.33382
C          2.40580        0.05146       -0.37193
C          2.99838       -1.17936        0.27385
C          3.92789       -0.72515        1.38485
C          5.37970       -0.35645        1.00801
C          5.09827        1.08969        1.43706
C          3.59573        0.76906        1.44606
O          2.82615        1.16314        0.29539
H          3.53598       -1.76332       -0.47914
H          2.17736       -1.77507        0.68391
H          3.82658       -1.25736        2.33625
H          5.62012       -0.46374       -0.05539
H          6.15017       -0.86536        1.59515
H          5.41588        1.85240        0.72029
H          5.49700        1.34621        2.42550
H          3.08643        1.08073        2.36433
