16

C          1.38223       -0.80667        0.93610
C          2.20087       -0.12725        0.12198
C          3.01959       -0.77750       -0.95485
C          4.48490       -0.42904       -0.76431
C          5.23310       -0.98758        0.45376
O          6.11882       -1.74306       -0.41363
C          5.45254       -1.35395       -1.53001
O          5.63387       -1.70034       -2.67353
H          0.79251       -0.29473        1.69056
H          1.26495       -1.88471        0.86164
H          2.26237        0.95553        0.22339
H          2.67649       -0.40574       -1.92816
H          2.87192       -1.86343       -0.95514
H          4.70161        0.62824       -0.95677
H          4.66890       -1.65001        1.11722
H          5.78193       -0.24825        1.04375
