14

C          1.04469       -0.12739        0.05461
C          2.50984        0.05648        0.05142
C          3.34133        1.15633        0.05520
C          4.66669        0.66076        0.04798
C          4.56039       -0.71044        0.04153
O          3.25541       -1.08735        0.04312
C          2.92391        2.51788        0.06432
C          2.55802        3.66115        0.07215
H          0.51988        0.83265        0.05625
H          0.73241       -0.68526        0.94267
H          0.72834       -0.68421       -0.83274
H          5.58596        1.22895        0.04882
H          5.27892       -1.51793        0.03490
H          2.22398        4.67222        0.07925
