16

O          1.14725       -0.00161        0.05287
C          2.36807        0.00412        0.05873
C          3.23817        1.15801       -0.38447
C          4.61897        0.49863       -0.16519
C          4.79387       -0.65186       -1.16158
O          3.85220       -1.65573       -0.70429
C          3.27862       -1.12530        0.51023
C          4.40992       -0.30700        1.11210
H          3.08745        2.01056        0.28263
H          3.05473        1.41981       -1.42835
H          5.44470        1.21218       -0.15796
H          5.79791       -1.08595       -1.11579
H          4.56259       -0.37658       -2.19461
H          2.80570       -1.87773        1.14008
H          5.28479       -0.91436        1.36680
H          4.11046        0.30380        1.97003
