20

C          0.90775       -0.07310        0.06226
C          2.42220       -0.09707       -0.05438
C          3.03370       -1.19768       -0.91912
C          2.56481       -0.84857       -2.34453
C          2.60219        0.68803       -2.34250
C          3.05890        0.99352       -0.90990
O          4.47000        0.65174       -0.85786
C          4.50824       -0.79709       -0.81417
H          0.56099       -0.94666        0.62420
H          0.38962       -0.07728       -0.89997
H          0.58708        0.82420        0.60191
H          2.85381       -0.11286        0.95545
H          2.82796       -2.22788       -0.62349
H          1.54927       -1.21218       -2.53324
H          3.21978       -1.27021       -3.11416
H          1.61104        1.10142       -2.55354
H          3.31041        1.06247       -3.08875
H          2.90016        2.02474       -0.58852
H          4.95150       -1.09624        0.14124
H          5.12749       -1.17173       -1.63431
