13

N          1.12771        0.10708        0.13429
C          2.45922        0.05279        0.10201
N          3.24201        1.12692        0.08087
N          4.48591        0.61392        0.06753
C          4.51311       -0.75052        0.07229
C          3.19695       -1.14679        0.09026
C          5.68434       -1.54856        0.06583
C          6.66679       -2.23719        0.06336
H          0.67238        1.00844        0.05956
H          0.53044       -0.70348        0.04875
H          5.27253        1.25313        0.05896
H          2.82449       -2.15979        0.10096
H          7.52968       -2.86241        0.06291
