14

O          1.45982        0.11893        0.84667
C          2.37210       -0.08190        0.04947
C          3.12974        1.01068       -0.66231
C          2.74060        2.38713       -0.11839
C          3.48562        3.48032       -0.86691
C          4.12469        4.41806       -1.50900
C          4.62100        0.78301       -0.56626
O          5.12392       -0.22815       -0.08477
H          2.64238       -1.11452       -0.23881
H          2.87170        0.94223       -1.72610
H          2.98431        2.46829        0.94806
H          1.66279        2.55626       -0.22559
H          4.64076        5.19319       -2.02879
H          5.26592        1.54596       -1.03322
