18

C          0.92319       -0.08709        0.23221
C          2.45398       -0.04528        0.16609
O          2.94180       -0.11857        1.51158
C          2.93554        1.28659       -0.49017
C          3.81000        1.14263       -1.70700
C          4.16740       -0.04668       -2.20933
C          3.74417       -1.27804       -1.59786
C          2.96378       -1.29178       -0.50837
H          0.53360        0.78073        0.77701
H          0.57255       -0.97210        0.77687
H          0.47519       -0.09725       -0.76754
H          2.71690        0.71596        1.95396
H          3.48659        1.88756        0.24452
H          2.06943        1.89053       -0.78944
H          4.15694        2.05424       -2.18564
H          4.80322       -0.11009       -3.08824
H          4.09594       -2.20803       -2.03680
H          2.69245       -2.24412       -0.06170
