20

O          0.98299        0.12445        0.16271
C          2.40533        0.08419        0.11012
C          2.87287       -1.32607       -0.26435
C          2.47289       -1.70631       -1.69364
C          2.95132       -0.66529       -2.70678
C          2.48087        0.74445       -2.34495
C          2.85482        1.08460       -0.92299
C          3.56386        2.18244       -0.61290
H          0.70316       -0.52416        0.82884
H          2.78085        0.34395        1.10647
H          2.43936       -2.05955        0.42570
H          3.96405       -1.38915       -0.16731
H          1.38232       -1.80439       -1.75779
H          2.89548       -2.68574       -1.94470
H          2.58462       -0.92977       -3.70525
H          4.04766       -0.68481       -2.75434
H          1.39169        0.81129       -2.45690
H          2.91414        1.46039       -3.05343
H          3.88359        2.88474       -1.37658
H          3.83139        2.41440        0.41324
