22

C          0.94355       -0.14794        0.08253
C          2.46729       -0.09111        0.07772
C          3.02583        1.32039        0.34001
C          2.53653        1.78635        1.70012
O          1.86002        2.79674        1.86189
C          4.57698        1.36489        0.31172
C          5.14816        0.90896       -1.03629
C          5.10819        2.77442        0.61096
H          0.60599       -1.14867       -0.20616
H          0.52097        0.57012       -0.62736
H          0.53601        0.06422        1.07563
H          2.80088       -0.44916       -0.90153
H          2.85016       -0.79542        0.82659
H          2.62771        2.01088       -0.41460
H          2.83267        1.16074        2.56005
H          4.96735        0.69441        1.08901
H          4.73405        1.49922       -1.86072
H          4.93706       -0.14667       -1.22814
H          6.23782        1.02160       -1.05559
H          4.72806        3.50313       -0.11305
H          6.20288        2.79366        0.56707
H          4.82271        3.10767        1.61370
