20

C          1.01909       -0.07140       -0.02985
C          2.50137       -0.02827       -0.11096
C          3.33312       -1.05999       -0.22518
O          4.67765       -0.76050       -0.24944
C          4.69380        0.67346       -0.43240
C          3.31451        1.22707       -0.01269
C          3.35262        1.74727        1.43090
C          2.85950        2.33794       -0.96132
H          0.64679       -1.10062       -0.06620
H          0.57209        0.47299       -0.86728
H          0.66846        0.37790        0.90388
H          3.10438       -2.11268       -0.26102
H          4.91025        0.86246       -1.49189
H          5.51713        1.09236        0.15657
H          3.69985        0.97825        2.13104
H          2.36108        2.07464        1.76347
H          4.03161        2.60295        1.51973
H          2.78478        1.97980       -1.99462
H          3.56497        3.17634       -0.94912
H          1.87535        2.72676       -0.67596
