20

C          1.03256       -0.05180       -0.01100
C          2.55071       -0.08322        0.02623
O          3.05639       -0.12940       -1.30135
C          3.15213       -1.20345        0.89244
C          3.97321       -0.34716        1.86507
C          4.65330        0.74694        0.98424
C          3.14999        1.12750        0.75052
C          3.02467        0.82067        2.28179
H          0.64085       -0.93091       -0.53451
H          0.68059        0.82770       -0.56195
H          0.58654       -0.02174        0.98725
H          2.74761       -0.95788       -1.70623
H          3.79057       -1.88693        0.32359
H          2.39318       -1.78073        1.43066
H          4.56275       -0.84004        2.63688
H          5.22369        0.39631        0.11930
H          5.25920        1.48797        1.51959
H          2.92375        2.13382        0.39893
H          2.03941        0.54066        2.66350
H          3.45287        1.57104        2.95748
