14

O          1.15830        0.07503       -0.36427
C          2.34597        0.04975       -0.08334
C          3.16969       -1.19046        0.10060
C          4.45616       -0.62281        0.69064
C          4.35399        0.85673        0.48904
C          3.15055        1.26992        0.08316
C          5.69964       -1.19066        0.02604
C          6.76630       -1.67776       -0.54405
H          3.31087       -1.67875       -0.86922
H          2.67726       -1.87330        0.80003
H          4.51290       -0.83897        1.76475
H          5.17204        1.53138        0.70887
H          2.78798        2.26482       -0.09600
H          7.63802       -2.07531       -1.01130
