18

C          1.58639       -1.19913       -0.13668
C          2.44046        0.05127        0.01733
O          1.64971        1.19714       -0.27341
C          2.96950        0.18886        1.41458
C          4.27634        0.24268        1.72241
C          4.80475        0.39264        3.11575
C          5.68507       -0.79911        3.45510
C          6.44021       -1.82140        3.74620
H          1.18601       -1.26226       -1.15420
H          0.72244       -1.17731        0.53762
H          2.16467       -2.10599        0.06744
H          3.25587        0.02384       -0.71367
H          0.97785        1.27903        0.42305
H          2.23328        0.24197        2.21370
H          5.01893        0.19794        0.92768
H          3.99698        0.46038        3.85282
H          5.39918        1.30997        3.18559
H          7.05678       -2.65776        3.98242
