16

C          1.10625       -0.08281        0.05477
C          2.60905       -0.00624       -0.01353
C          3.23041        0.46751       -1.10744
C          3.37727       -0.50345        1.19119
C          3.00077        0.33678        2.40059
C          2.67780        1.05754        3.43801
C          2.32544        1.84441        4.59236
O          2.53260        1.42895        5.72282
H          0.63545        0.25669       -0.87416
H          0.71849        0.54847        0.86118
H          0.78477       -1.11325        0.23406
H          2.67196        0.81840       -1.97040
H          4.31284        0.52026       -1.17127
H          4.46018       -0.43828        1.03657
H          3.13132       -1.55360        1.38343
H          1.86564        2.82271        4.38120
