18

C          1.34719       -0.15775       -0.73335
C          2.50062       -0.07409        0.23234
C          2.75504       -0.39686       -1.21699
C          3.53083       -1.69501       -1.13267
C          2.65495       -2.87418       -0.70433
C          2.38507       -2.54295        0.77581
C          3.15961       -1.23394        0.94843
O          4.29224       -1.49676        0.08430
H          0.86970        0.77380       -1.02220
H          0.64723       -0.98025       -0.67222
H          2.83942        0.88982        0.59054
H          3.25585        0.35525       -1.81273
H          4.18014       -1.88873       -1.98916
H          3.21628       -3.81342       -0.76606
H          1.74207       -2.97763       -1.29723
H          2.81294       -3.33118        1.40543
H          1.32070       -2.45401        1.01071
H          3.47262       -1.01370        1.97146
