13

N          1.05835       -0.00634        0.15005
C          2.21630        0.01508        0.09094
C          3.65539        0.03608        0.04388
C          4.33739        1.04954        0.99026
N          5.36739        0.02132        1.26651
C          4.35597       -1.02699        0.92693
C          4.93034       -2.15000        0.21137
N          5.37053       -3.05529       -0.36641
H          4.04794        0.09534       -0.98158
H          3.75737        1.33482        1.87696
H          4.72014        1.95656        0.51347
H          5.71248       -0.00669        2.22633
H          3.77253       -1.33969        1.80472
