20

C          0.84541       -0.14841        0.17280
C          2.28761       -0.01044       -0.29148
C          3.10623        0.92976        0.55924
C          4.19970        0.51352        1.22285
C          5.04399        1.46324        2.02028
C          4.37701        2.82863        2.18502
O          3.76814        3.24511        0.96252
C          2.68694        2.38131        0.58961
H          0.34489       -0.94022       -0.39494
H          0.28622        0.77893        0.01150
H          0.78933       -0.40584        1.23528
H          2.30368        0.34036       -1.33043
H          2.74453       -1.00791       -0.29905
H          4.52416       -0.52195        1.17432
H          5.26400        1.04114        3.00654
H          5.99821        1.58205        1.49338
H          5.13039        3.57541        2.45776
H          3.62450        2.81598        2.98274
H          2.35515        2.70317       -0.40241
H          1.85428        2.52580        1.28809
