19

C          2.18114        0.01737       -0.44724
C          1.79351       -0.04723        1.00675
C          0.73672       -0.13252       -0.05474
C         -0.26388        0.97562       -0.31286
N         -1.47789        0.17418       -0.73899
C         -0.90514       -0.90658       -1.68112
C         -0.11540       -1.31190       -0.39076
C         -1.51556       -1.01479        0.25265
H          2.68269       -0.84099       -0.87974
H          2.51142        0.96977       -0.84614
H          1.87609        0.86324        1.58980
H          2.04954       -0.94776        1.55425
H          0.04540        1.64870       -1.11756
H         -0.49431        1.54737        0.59076
H         -0.31001       -0.52494       -2.51783
H         -1.64014       -1.62427       -2.06921
H          0.28390       -2.32253       -0.31607
H         -1.52714       -0.73252        1.31038
H         -2.31774       -1.74151        0.07201
