18

C          0.82077       -0.65925        0.46185
C          1.96022       -0.95276       -0.45875
C          3.16096       -0.36420       -0.39508
O          3.46910        0.60246        0.52541
C          4.86076        0.56385        0.90354
C          5.82741        1.38291        0.09454
C          5.40021        1.86185        1.45034
O          6.36052        1.75331        2.51475
H         -0.12731       -0.75460       -0.07674
H          0.86705        0.35353        0.87304
H          0.81521       -1.37649        1.28854
H          1.79111       -1.71414       -1.21481
H          3.96901       -0.61317       -1.07078
H          5.22567       -0.34525        1.37446
H          5.44594        1.91549       -0.76915
H          6.82892        0.99404       -0.03501
H          4.71111        2.70020        1.49347
H          7.17814        1.30965        2.23745
