18

C          3.28010       -1.37677        0.02017
C          2.51358       -0.06114        0.01444
C          2.99494        0.89060       -1.08491
C          2.18707        2.17895       -1.11285
C          2.99268        3.22994       -0.88360
C          4.39567        2.85067       -0.66219
O          4.78445        1.93759        0.37468
C          4.43066        1.35021       -0.87930
H          2.92559       -2.01511        0.83577
H          4.35298       -1.21630        0.16401
H          3.13555       -1.91717       -0.92070
H          2.60989        0.40831        1.00137
H          1.44753       -0.27879       -0.12785
H          2.90926        0.40712       -2.06600
H          1.12292        2.22856       -1.29124
H          2.66073        4.25877       -0.84295
H          5.15768        3.46107       -1.12883
H          5.18423        0.90235       -1.50517
