20

C          0.96816        0.04378       -0.04880
C          2.48305       -0.01681       -0.05919
C          3.22559        1.01357        0.82352
C          4.28254       -0.06954        1.12907
O          5.47479       -0.06158        0.30642
C          3.21546       -1.15298        0.73509
C          2.49206       -1.76930        1.92519
O          3.72578       -2.21700       -0.10543
H          0.61718        0.92551       -0.59449
H          0.56642        0.09842        0.96780
H          0.54554       -0.84121       -0.53510
H          2.83165        0.02231       -1.10330
H          2.67311        1.34251        1.71139
H          3.58981        1.89891        0.29424
H          4.57919       -0.09799        2.18324
H          5.18981        0.26712       -0.56438
H          2.09603       -1.00678        2.60442
H          3.17089       -2.40532        2.50362
H          1.65379       -2.39055        1.59227
H          4.68564       -2.04095       -0.16011
