20

C          0.97083        0.02340        0.21484
C          2.49074        0.07138        0.02071
C          3.06089       -1.26988       -0.46924
C          2.59541       -1.71357       -1.85310
O          3.15600       -0.93934       -2.91451
C          2.51447        0.24417       -3.13575
C          2.37755        1.24548       -2.25984
C          2.91737        1.25137       -0.86304
H          0.69714       -0.77261        0.91527
H          0.43312       -0.15464       -0.72148
H          0.60722        0.97014        0.62912
H          2.92581        0.25016        1.01423
H          2.79012       -2.04833        0.25493
H          4.15629       -1.20151       -0.46860
H          1.50304       -1.76276       -1.93781
H          2.95435       -2.73715       -2.01288
H          2.19804        0.32124       -4.16910
H          1.88819        2.15765       -2.59425
H          2.59534        2.18270       -0.37977
H          4.01304        1.30697       -0.90903
