20

C          2.55689        1.48460       -0.07253
C          2.46236       -0.02952        0.06056
C          3.01863       -0.55700        1.39915
C          2.79304       -2.08240        1.50425
C          4.11535       -2.65792        1.11228
C          5.07636       -1.72875        1.12921
C          4.54765       -0.38854        1.51926
O          4.92196       -0.12708        2.86252
H          2.10029        1.80626       -1.01394
H          3.59403        1.83066       -0.07619
H          2.03061        1.98350        0.74711
H          2.97913       -0.49895       -0.78529
H          1.40464       -0.30968       -0.02106
H          2.49402       -0.05411        2.22152
H          1.99081       -2.43553        0.84947
H          2.55725       -2.37644        2.53324
H          4.27153       -3.70279        0.87980
H          6.11938       -1.90983        0.91076
H          4.95198        0.40238        0.88436
H          4.74643       -0.93518        3.37435
