20

C          0.98849       -0.06065        0.06749
C          2.50590       -0.08520        0.05042
C          3.01256       -1.33395       -0.65266
C          3.44717       -2.40513       -1.25576
C          3.95384       -3.65388       -1.95883
C          3.34206       -4.92360       -1.34577
C          3.67164       -5.11112        0.13144
O          1.92216       -4.93305       -1.51252
H          0.62768        0.83898        0.57563
H          0.58558       -0.93408        0.59154
H          0.58241       -0.06453       -0.94982
H          2.89365       -0.06962        1.07456
H          2.89061        0.79879       -0.46917
H          5.04666       -3.68627       -1.89297
H          3.67340       -3.58121       -3.01587
H          3.72284       -5.78948       -1.89827
H          3.27170       -4.29586        0.74401
H          4.75244       -5.17221        0.28997
H          3.20937       -6.03032        0.50797
H          1.56969       -4.15054       -1.05175
