20

C          0.78486        0.46792        0.23610
C          2.26339        0.10729        0.20774
C          2.73174       -0.26747       -1.19790
O          3.08898        1.21074        0.70952
C          3.87706        0.25160        1.47964
C          2.71258       -0.74740        1.43030
C          3.01303       -2.21562        1.25426
O          3.70902       -2.69191        2.40156
H          0.55938        1.27471       -0.46968
H          0.46768        0.79960        1.23082
H          0.17330       -0.39949       -0.03570
H          2.47775        0.52147       -1.91348
H          2.26132       -1.19438       -1.53519
H          3.81879       -0.40453       -1.24342
H          4.12974        0.62960        2.47392
H          4.79097       -0.02985        0.94628
H          2.04998       -0.61213        2.29905
H          2.08867       -2.79367        1.14861
H          3.63789       -2.41226        0.37930
H          3.12715       -2.58068        3.17339
