18

C          1.02096        0.06083       -0.14348
C          2.50564        0.16770       -0.16257
O          3.12411       -0.45237       -1.29131
C          3.28596        0.97882       -1.19872
C          2.56698        1.72586       -2.30388
O          3.14993        1.44475       -3.57552
C          4.55746        1.57291       -0.72734
C          5.78079        1.04720       -0.88578
H          0.70288       -0.60027        0.66901
H          0.62422       -0.34976       -1.07801
H          0.57013        1.04311        0.02433
H          2.94613        0.00471        0.81317
H          2.62723        2.80723       -2.13793
H          1.50793        1.46443       -2.36693
H          4.10278        1.31868       -3.43225
H          4.47419        2.52328       -0.20246
H          5.92125        0.09507       -1.38981
H          6.66204        1.54974       -0.49929
