24

C          1.10644        0.30921       -0.21649
C          2.60916        0.15199       -0.01441
C          3.05852       -0.80575        1.12913
C          2.55570       -0.26277        2.48704
C          2.48913       -2.24382        0.96433
C          2.97213       -3.00973       -0.26130
C          4.60962       -0.81278        1.13703
O          5.14215       -1.68111        2.12822
H          0.91510        1.07673       -0.97409
H          0.59842        0.62455        0.69877
H          0.64999       -0.61941       -0.56939
H          3.02622        1.14943        0.17670
H          3.04763       -0.17347       -0.96604
H          1.46242       -0.24317        2.53821
H          2.91968        0.75510        2.66381
H          2.89477       -0.88650        3.32134
H          1.39344       -2.20633        0.93816
H          2.73964       -2.84107        1.85066
H          2.80195       -2.45415       -1.18703
H          2.43236       -3.95992       -0.34021
H          4.03743       -3.24837       -0.18714
H          5.00703        0.19294        1.31687
H          5.00460       -1.13876        0.16886
H          5.02139       -1.25183        2.98995
