16

C          0.96162       -0.64480        0.01424
C          2.32202       -0.00173        0.08301
O          3.22244       -0.30668       -0.69261
C          2.51232        1.01162        1.16091
C          3.71093        1.42647        1.59771
C          5.04544        1.00742        1.15597
C          5.72141        1.75969        0.03979
O          6.19869        1.83504        1.38744
H          0.90886       -1.29875       -0.86066
H          0.18683        0.12083       -0.07940
H          0.79436       -1.24468        0.91279
H          1.60716        1.39634        1.61650
H          3.71483        2.16213        2.40113
H          5.21480       -0.06492        1.20219
H          5.24165        2.63669       -0.37440
H          6.30894        1.19112       -0.67024
