18

C          0.95451        0.24764        0.26138
C          2.38060       -0.17415       -0.06110
O          2.40570       -1.60208       -0.25406
C          2.37596       -1.86129       -1.66862
C          2.93710       -0.64703       -2.33674
O          4.13087       -0.81330       -3.10526
C          2.14343        0.59948       -2.59205
C          2.93265        0.43270       -1.31782
H          0.61750       -0.24075        1.18236
H          0.25169       -0.06567       -0.51827
H          0.87524        1.33164        0.38462
H          3.02913        0.05668        0.79068
H          1.33825       -2.04258       -1.96685
H          2.96374       -2.76182       -1.86743
H          3.95026       -1.27333       -3.94417
H          1.06324        0.54429       -2.56468
H          2.52451        1.30755       -3.31978
H          3.84417        0.99390       -1.16677
