19

N          1.10622        0.61116       -0.11474
N          2.31801       -0.13830       -0.05257
C          3.02491       -0.37632        1.21805
C          2.08373       -0.78839        2.35630
C          2.83118       -1.19115        3.59906
C          2.72246       -2.39299        4.17918
C          3.00991       -0.19079       -1.24585
N          2.60272        0.25963       -2.38369
H          0.78369        0.89786        0.81012
H          0.36828        0.00757       -0.48773
H          3.58454        0.52601        1.49377
H          3.76078       -1.17744        1.06762
H          1.42768       -1.59966        2.01977
H          1.43181        0.05157        2.62705
H          3.47838       -0.44371        4.05494
H          2.08020       -3.16969        3.77469
H          3.27394       -2.62535        5.08584
H          3.99904       -0.67336       -1.16734
H          1.69204        0.69023       -2.17565
