20

C          1.26071       -0.17425       -1.09692
C          2.20122        0.23440        0.02695
C          3.19429       -0.84606        0.37398
C          4.51840       -0.67026        0.23662
C          5.64239       -1.62523        0.53954
C          5.33332       -2.95254        1.15975
C          4.60747       -4.05690        0.43363
O          6.03547       -4.04673        0.54021
H          0.60823        0.66505       -1.36251
H          0.62334       -1.01216       -0.79689
H          1.81309       -0.46634       -1.99649
H          1.61557        0.47877        0.92102
H          2.71930        1.15324       -0.27011
H          2.78883       -1.77639        0.76084
H          4.86611        0.28693       -0.15234
H          6.20207       -1.77308       -0.39256
H          6.32947       -1.10470        1.21910
H          5.31296       -2.92868        2.24101
H          4.16268       -3.83861       -0.52830
H          4.07973       -4.79755        1.02084
