16

C          0.89188       -0.06380        0.14356
C          2.23221        0.00804        0.10124
C          2.92448        1.34360        0.02430
C          4.42938        1.32852        0.23288
O          5.03584        2.38695        0.43987
C          5.20239        0.03790        0.05156
C          4.35943       -1.19300        0.08528
C          3.02398       -1.19862        0.11240
H          0.27867        0.83291        0.12743
H          0.36306       -1.01159        0.18715
H          2.50891        2.00627        0.79510
H          2.73939        1.79031       -0.95866
H          5.93698       -0.01938        0.86360
H          5.73620        0.08585       -0.90286
H          4.88920       -2.14234        0.08780
H          2.50259       -2.15550        0.14044
