20

C          3.06585        1.16132        0.54287
C          2.49969       -0.04622       -0.19180
C          2.82004       -0.03056       -1.66670
C          1.85347       -0.06697       -2.59948
O          4.17709       -0.11880       -1.91598
C          4.81152        0.28084       -3.08403
C          4.36232        1.50515       -3.82606
C          5.93530       -0.35938       -3.43008
H          2.82709        1.09704        1.60949
H          2.64435        2.09398        0.15492
H          4.15587        1.21235        0.44902
H          1.41724       -0.08933       -0.02288
H          2.91971       -0.96020        0.24598
H          0.80438       -0.04857       -2.31913
H          2.07330       -0.13942       -3.65767
H          3.47070        1.97067       -3.40232
H          4.15260        1.25825       -4.87304
H          5.15254        2.26421       -3.80782
H          6.29358       -1.19661       -2.84167
H          6.52911       -0.05292       -4.28541
