20

C          1.03585       -0.08334        0.02079
C          2.53934       -0.04704        0.05442
C          3.17961        0.97877        0.94795
C          3.24938       -0.90848       -0.70058
C          4.74933       -0.98076       -0.79647
C          5.29313       -2.33317       -0.33159
C          6.81151       -2.31957       -0.40046
C          8.11398       -2.30791       -0.45954
H          0.59263        0.66503        0.68515
H          0.66812       -1.06382        0.34077
H          0.67020        0.12052       -0.99116
H          2.43550        1.57385        1.48614
H          3.78826        1.67514        0.36158
H          3.81105        0.49410        1.70004
H          2.71133       -1.61768       -1.32943
H          5.22633       -0.17968       -0.21998
H          5.03502       -0.80811       -1.84216
H          4.91314       -3.14279       -0.96515
H          4.98715       -2.54083        0.70031
H          9.17857       -2.29895       -0.50728
