20

C          2.93233       -1.06668       -0.85703
C          2.42081        0.00491        0.09410
C          3.01607       -0.15167        1.49275
O          4.45855       -0.02138        1.44409
C          2.34432        0.73716        2.57933
C          2.48754       -0.45571        3.55074
O          3.67527       -0.46127        4.36911
C          2.51555       -1.37736        2.31145
H          2.50750       -0.91983       -1.85505
H          2.65256       -2.06722       -0.51247
H          4.02276       -1.03474       -0.94645
H          1.32625       -0.05229        0.13388
H          2.67072        0.99382       -0.30816
H          4.62442        0.85364        1.04909
H          1.30492        1.01865        2.37414
H          2.90035        1.63698        2.85888
H          1.60990       -0.60506        4.18793
H          4.41507       -0.41383        3.73154
H          1.52981       -1.75891        2.02134
H          3.21287       -2.21834        2.37011
