18

C          0.98923        0.10153        0.26295
C          2.49152        0.04831        0.00649
O          2.90972       -1.26182       -0.36778
C          2.58022       -1.63688       -1.70387
C          3.18514       -0.66304       -2.70629
C          2.70222        0.75788       -2.45892
C          2.89422        1.11862       -1.00585
O          3.23089        2.25307       -0.66644
H          0.69449       -0.66546        0.98483
H          0.41377       -0.08047       -0.65125
H          0.69167        1.08325        0.64525
H          3.01298        0.27667        0.94244
H          1.49346       -1.71056       -1.81617
H          2.99147       -2.63643       -1.87174
H          2.93787       -0.97111       -3.72789
H          4.27719       -0.68447       -2.60601
H          1.63816        0.85684       -2.69855
H          3.26403        1.45908       -3.08390
