18

C          1.99222       -1.04014        0.54168
C          2.36677        0.07008       -0.10647
C          3.12972        0.13322       -1.34318
C          3.46938        1.32186       -1.85342
O          4.20177        1.55288       -2.97433
C          4.47822        0.45650       -3.84206
C          4.35681       -0.95541       -3.28675
C          3.54281       -1.13595       -2.01633
H          1.42964       -0.97191        1.46797
H          2.23776       -2.03919        0.19389
H          2.07578        1.02589        0.33403
H          3.20891        2.27137       -1.39374
H          5.50651        0.60407       -4.19478
H          3.84152        0.56714       -4.72270
H          5.36542       -1.35288       -3.11664
H          3.94195       -1.60011       -4.07286
H          4.14267       -1.73134       -1.31543
H          2.65171       -1.73161       -2.25048
