14

O          1.34420       -0.04510       -0.90420
C          2.37466       -0.06061       -0.24378
C          2.75486       -1.21523        0.59975
C          3.89329       -0.92172        1.24628
C          4.41559        0.43975        0.95637
O          4.01252        1.47780        1.88349
C          3.33052        2.18933        0.81957
C          3.48783        1.01220       -0.13246
H          2.17439       -2.12146        0.64675
H          4.39591       -1.59388        1.93093
H          5.48891        0.47787        0.74602
H          3.88329        3.09094        0.53605
H          2.30488        2.45476        1.08884
H          3.97484        1.24358       -1.08373
