16

C         -0.52450        0.27522        0.14728
O         -0.33278       -0.97309       -0.52527
C          0.84162       -0.35533        0.03369
C          1.49208       -0.85431        1.23763
C          1.58045       -2.11056        1.70911
C          2.37594       -2.13138        2.97886
C          2.72453       -0.68220        3.14851
C          2.20542        0.03021        2.13781
H         -1.04288        0.25176        1.09770
H         -0.74042        1.14254       -0.46348
H          1.52981        0.07679       -0.68617
H          1.14567       -2.98178        1.24200
H          3.27549       -2.74438        2.87148
H          1.77622       -2.49592        3.81769
H          3.30769       -0.28533        3.96521
H          2.29755        1.09713        2.00072
