19

C         -0.39585        0.47105        0.19170
C         -0.62751       -0.94336       -0.24719
C          0.77840       -0.44574       -0.03706
N          1.56190       -0.88336        1.14248
C          1.86786       -2.33465        1.09151
C          3.27730       -2.42947        0.62439
C          3.85722       -1.23063        0.67214
C          2.88969       -0.21393        1.17942
H         -0.66139        0.72600        1.21165
H         -0.57102        1.26203       -0.52614
H         -0.94474       -1.11662       -1.26892
H         -1.04501       -1.63665        0.47176
H          1.35416       -0.28915       -0.94767
H          1.19090       -2.88920        0.43460
H          1.78193       -2.75887        2.09824
H          3.75287       -3.35117        0.32072
H          4.88413       -1.01709        0.41122
H          2.91674        0.70180        0.57993
H          3.14266        0.05007        2.21215
