22

C          1.11069        0.10940       -0.34470
C          2.61659        0.12341       -0.10063
C          3.04730        0.44148        1.35065
O          2.56130        1.75261        1.67479
C          2.48013       -0.53225        2.40847
C          2.93909       -1.98143        2.29844
C          4.56427        0.47596        1.40538
C          5.32958        1.52303        1.74492
H          0.91095        0.00185       -1.41627
H          0.63537        1.03812       -0.01610
H          0.63027       -0.72963        0.16645
H          3.03889        0.88618       -0.76881
H          3.03190       -0.83859       -0.42525
H          1.60183        1.69243        1.81005
H          1.38364       -0.50830        2.38099
H          2.73612       -0.16342        3.41190
H          2.77115       -2.38851        1.29817
H          2.38261       -2.60241        3.00871
H          4.00094       -2.08205        2.54346
H          5.07238       -0.44516        1.12328
H          4.89150        2.47693        2.02756
H          6.41120        1.44987        1.74252
