20

O          0.81797        0.20354       -0.05045
C          2.23261        0.05882       -0.02207
C          2.85747        1.28834       -0.67067
C          4.39584        1.27843       -0.68394
C          4.96129        0.10402       -1.50503
O          6.38519        0.06864       -1.45296
C          4.88453        2.60156       -1.24848
C          5.68099        3.45156       -0.58704
H          0.43814       -0.60956        0.32514
H          2.48294       -0.85576       -0.56591
H          2.55270       -0.04134        1.01946
H          2.49676        2.17978       -0.13857
H          2.46766        1.38776       -1.69313
H          4.76013        1.17963        0.34756
H          4.65182        0.15529       -2.55476
H          4.61943       -0.85297       -1.10082
H          6.70623        0.92308       -1.79279
H          4.55572        2.86248       -2.25325
H          6.03489        3.23931        0.41774
H          5.99708        4.38655       -1.04070
