21

N          0.92008        0.00773        0.06434
C          2.37826        0.01376        0.07619
C          2.90066        0.41496        1.45493
C          4.43077        0.41601        1.47826
C          4.96245        0.82115        2.82408
C          5.74647        1.89174        3.01960
C          6.25919        2.26165        4.31659
C          7.04568        3.32640        4.51066
H          0.58965       -0.20826       -0.87537
H          0.57058        0.94037        0.28221
H          2.74327        0.71196       -0.68513
H          2.74028       -0.98582       -0.18725
H          2.51922       -0.28140        2.21308
H          2.52630        1.41281        1.71890
H          4.80947        1.08528        0.69598
H          4.80567       -0.58803        1.24614
H          4.68812        0.18380        3.66268
H          6.02214        2.52113        2.17592
H          5.98985        1.64020        5.16842
H          7.34600        3.97938        3.69744
H          7.41036        3.56796        5.50408
