24

C          0.78200       -2.30756        1.02047
C          2.27288       -2.51181        0.77273
C          2.93457       -1.60640       -0.24992
C          2.29068       -0.65789       -0.95221
C          4.43379       -1.79917       -0.43091
C          4.86609       -3.19667       -0.92447
C          4.26804       -3.54627       -2.28860
C          6.39361       -3.27548       -0.99508
H          0.42606       -3.02443        1.76802
H          0.20056       -2.46721        0.10622
H          0.57412       -1.30136        1.39821
H          2.40979       -3.55460        0.46343
H          2.79584       -2.39037        1.72937
H          1.22782       -0.47170       -0.84407
H          2.81428       -0.02476       -1.66251
H          4.91365       -1.59537        0.53500
H          4.82966       -1.04361       -1.12282
H          4.53526       -3.95180       -0.20142
H          4.61067       -2.85100       -3.06222
H          3.17456       -3.52087       -2.26775
H          4.56468       -4.55752       -2.58926
H          6.79528       -2.57204       -1.73243
H          6.71689       -4.28305       -1.27747
H          6.84173       -3.04176       -0.02351
