16

C          1.09755        0.18746       -0.51490
C          2.32279        0.09457        0.33477
C          2.76873       -1.29246        1.04060
C          4.15458       -0.48622        1.21288
C          3.77663        0.77498        1.91779
C          2.61382        1.14989        1.35599
C          3.79082       -0.12317       -0.37122
O          4.30305       -0.11272       -1.45668
H          0.19311        0.10533        0.09785
H          1.06592       -0.62041       -1.25335
H          1.05117        1.13686       -1.05736
H          2.79938       -2.17894        0.39497
H          2.24015       -1.54534        1.96512
H          5.06552       -1.01487        1.46964
H          4.32995        1.27234        2.69956
H          2.02182        2.02654        1.57810
