18

C          0.88474       -0.05468        0.08923
C          2.39894        0.07417       -0.07844
C          3.07190       -1.21771       -0.55347
O          2.52990       -1.70971       -1.77688
C          3.03496       -1.02465       -2.91295
C          2.42251        0.32611       -3.07646
C          2.34231        1.28777       -2.14940
O          2.72719        1.24315       -0.84534
H          0.63650       -0.83328        0.81702
H          0.38604       -0.29734       -0.85439
H          0.46040        0.89428        0.43654
H          2.80902        0.28234        0.91803
H          2.89854       -2.00037        0.19396
H          4.15696       -1.09116       -0.64511
H          2.77669       -1.63027       -3.78628
H          4.12939       -0.95982       -2.88890
H          2.08359        0.56446       -4.08116
H          1.99143        2.28570       -2.39177
