18

O          2.72470        1.39207       -0.35423
C          2.47148        0.05548        0.06536
C          3.26120       -0.88924       -0.82585
C          3.93861       -1.69962       -1.59034
C          2.92143       -0.08872        1.51061
C          2.17300        0.76881        2.56759
C          2.30645       -0.42955        3.52965
C          2.38985       -1.33031        2.28100
H          2.61764        1.40391       -1.32027
H          1.39933       -0.13919       -0.04587
H          4.49713       -2.36090       -2.21206
H          4.01229        0.02308        1.61213
H          1.13587        1.01015        2.30754
H          2.68275        1.68308        2.88136
H          1.45379       -0.60662        4.18915
H          3.22555       -0.41742        4.12644
H          1.41363       -1.69486        1.94044
H          3.07907       -2.17540        2.35358
