20

C          2.31715        1.39960       -0.52757
C          2.40340       -0.04887       -0.07522
C          2.95007       -0.94702       -1.14628
C          2.99684       -2.42915       -0.87483
C          2.10441       -1.90019       -1.96503
O          0.68676       -1.91902       -1.70424
C          2.45458       -2.20034       -3.40007
O          1.48381       -1.61323       -4.25976
H          2.03099        2.04136        0.31244
H          1.57267        1.52037       -1.32054
H          3.27989        1.75443       -0.91057
H          1.41693       -0.38025        0.26659
H          3.07191       -0.10328        0.79236
H          3.82728       -0.51379       -1.61860
H          2.54505       -2.80550        0.03546
H          3.90093       -2.95895       -1.15597
H          0.48423       -2.22684       -0.80460
H          2.44708       -3.28204       -3.56879
H          3.44037       -1.81391       -3.67661
H          0.64786       -1.65452       -3.75294
