16

N          1.03809       -0.08557       -0.08187
C          2.37236        0.03784       -0.06642
C          3.17333        1.15260       -0.05903
C          4.51829        0.70438       -0.04596
C          4.50857       -0.67919       -0.04576
N          3.18508       -1.06455       -0.05815
C          5.49938       -1.68971       -0.03683
C          6.80327       -1.38806       -0.02775
H          0.43448        0.73242       -0.05834
H          0.54434       -0.97106       -0.04878
H          2.83534        2.17939       -0.06356
H          5.39852        1.33256       -0.03842
H          2.85327       -2.01620       -0.06334
H          5.20483       -2.73666       -0.03824
H          7.16907       -0.36671       -0.02606
H          7.54936       -2.17610       -0.02131
