14

C          0.90775       -0.04994       -0.03386
C          2.42538       -0.02725       -0.01744
C          2.93204        1.13357        0.82291
C          3.36665        2.12932        1.54377
C          3.89218        3.29191        2.39060
C          4.31057        4.20018        3.05432
C          4.81185        5.28880        3.84976
O          5.98221        5.32520        4.20101
H          0.54518       -0.88632       -0.63935
H          0.50400        0.87718       -0.45500
H          0.50400       -0.16050        0.97839
H          2.81109        0.07419       -1.03742
H          2.81109       -0.96454        0.39743
H          4.07814        6.06763        4.11140
