22

C          1.09180        0.11104        0.04291
C          2.58395        0.06610       -0.04380
C          3.29768       -0.54565       -1.01202
C          2.67219       -1.28542       -2.16631
C          4.76316       -0.53260       -0.97950
C          5.46278        0.09985       -2.15338
C          5.43611       -1.07505        0.05579
C          6.92324       -1.14415        0.21183
H          0.78579        0.66929        0.93378
H          0.67177       -0.89631        0.12616
H          0.66328        0.61792       -0.82739
H          3.10991        0.58119        0.75934
H          1.57900       -1.29283       -2.12188
H          3.00256       -2.32947       -2.17209
H          2.94571       -0.83026       -3.12323
H          4.76512        0.53247       -2.87726
H          6.06995       -0.64248       -2.68262
H          6.11255        0.91551       -1.81806
H          4.87453       -1.52626        0.87281
H          7.46779       -0.69631       -0.62394
H          7.23758       -2.18933        0.29395
H          7.22447       -0.62381        1.12613
