18

O          1.27479       -0.38931       -0.44265
C          2.56131        0.01351        0.01651
C          3.03681        1.24864       -0.71690
C          2.19481        2.13366       -1.28076
C          4.48782        1.42987       -0.81508
C          5.08667        1.52104       -2.01449
C          5.28454        1.46148        0.46789
O          4.91524        2.58676        1.25315
H          1.05542       -1.20711        0.03208
H          3.24523       -0.82472       -0.15578
H          2.50273        0.21023        1.09207
H          1.11998        1.99712       -1.21907
H          2.54715        3.01604       -1.80717
H          4.51813        1.46589       -2.94002
H          6.16205        1.63894       -2.10971
H          6.36053        1.53295        0.27351
H          5.12228        0.55619        1.06078
H          4.91265        3.35362        0.65478
