22

C          1.48103       -0.65755       -0.68084
C          2.52249       -0.00296        0.21118
C          3.23881        1.11624       -0.47597
O          2.42001        2.20275       -0.92902
C          3.35378        2.52100        0.11328
C          2.69350        2.88196        1.40991
C          4.53017        3.36399       -0.31433
C          4.12544        4.72848       -0.85000
H          1.02114       -1.50642       -0.16472
H          1.92843       -1.02189       -1.61098
H          0.68708        0.05001       -0.94145
H          3.26542       -0.75563        0.50050
H          2.04171        0.32201        1.13786
H          3.99541        0.75854       -1.16324
H          1.67433        2.48723        1.47947
H          2.61851        3.96726        1.52988
H          3.27417        2.48857        2.24965
H          5.11484        2.84715       -1.08390
H          5.19961        3.49652        0.54379
H          3.54235        4.63079       -1.77117
H          5.01661        5.32370       -1.07407
H          3.52147        5.28579       -0.12789
