16

O          0.90415        0.98422       -0.03168
C          1.88166        0.44481        0.48424
C          3.32166        0.89236        0.30992
O          4.15793       -0.28272        0.31634
C          4.45697       -0.62084       -1.04909
C          4.40935        0.66115       -1.80506
C          3.12298        1.23193       -2.32617
C          3.64162        1.62043       -0.96246
H          1.74189       -0.39480        1.18908
H          3.58654        1.48978        1.18845
H          3.70509       -1.33353       -1.40213
H          5.44176       -1.09361       -1.08565
H          5.35594        0.97298       -2.22009
H          2.24817        0.59488       -2.39365
H          3.17876        1.97361       -3.11648
H          4.04080        2.61385       -0.80938
