16

C          1.03968        0.09678        0.08751
C          2.55490        0.01521        0.00895
C          3.01713       -1.00800       -1.01048
O          2.24255       -1.68342       -1.68335
C          4.48807       -1.16485       -1.16626
C          4.96080       -2.05263       -2.04999
C          6.41707       -2.22427       -2.22077
O          7.24679       -1.58677       -1.58569
H          0.73351        0.84073        0.82902
H          0.60896       -0.86889        0.37297
H          0.61130        0.38059       -0.87969
H          2.95504       -0.26388        0.98967
H          2.95731        0.99448       -0.27201
H          5.13542       -0.54781       -0.55275
H          4.31808       -2.67159       -2.66578
H          6.70549       -2.97841       -2.97199
