16

C          0.92621       -0.05696        0.03620
C          2.44621       -0.05696        0.03620
C          3.75007       -0.05696        0.03620
C          5.27007       -0.05696        0.03620
C          6.57392       -0.05696        0.03620
C          8.09392       -0.05696        0.03620
C          8.62634       -0.36870       -1.36107
O          8.27683        0.65613       -2.29040
H          0.55303       -0.87248        0.66192
H          0.55304       -0.19109       -0.98292
H          0.55303        0.89268        0.42959
H          8.45320       -0.80325        0.75211
H          8.43559        0.93225        0.36039
H          8.24714       -1.32349       -1.73665
H          9.71963       -0.42006       -1.33437
H          7.30299        0.67421       -2.34536
