18

C          0.92604        0.11474       -0.07059
C          2.44866       -0.02063       -0.08442
C          2.97950       -0.05506        1.34964
C          2.84464       -1.30426       -0.80786
O          2.46439       -1.27425       -2.21255
C          3.79115       -1.59298       -2.69825
C          4.29865       -1.43262       -1.26891
O          5.38807       -1.42720       -0.73770
H          0.62187        1.03701        0.43570
H          0.45548       -0.72943        0.44516
H          0.52485        0.14477       -1.08901
H          2.87228        0.85116       -0.59676
H          2.61902       -0.93948        1.88701
H          2.66157        0.83278        1.90634
H          4.07378       -0.08479        1.36349
H          2.47212       -2.21832       -0.33045
H          4.16237       -0.85372       -3.40868
H          3.84968       -2.60763       -3.09547
