15

N          1.13070        0.09555       -0.05599
C          2.48233        0.10881       -0.02573
C          3.31181        1.20997       -0.03933
C          4.64355        0.75115        0.01475
C          4.59803       -0.62405        0.04698
N          3.27577       -1.03754        0.01418
C          2.80937       -2.36222        0.01075
N          3.57132       -3.41029        0.06443
H          0.61852        0.97324        0.01771
H          0.56985       -0.70343        0.22498
H          2.98784        2.24170       -0.07607
H          5.54145        1.35567        0.02499
H          5.40913       -1.33565        0.08095
H          1.72069       -2.51848       -0.04108
H          4.56345       -3.16724        0.11102
