17

N          1.71131        0.75950       -0.86182
C          2.63398        0.11893        0.07557
C          3.20562        1.17026        0.99737
N          4.48217        1.39510        1.03272
N          4.84319        2.35729        1.92081
C          6.27674        2.62255        2.02978
C          6.52246        3.70690        3.06622
C          6.73324        4.63706        3.95527
H          1.34734        0.05342       -1.50097
H          2.24048        1.41080       -1.44524
H          3.43736       -0.38945       -0.46627
H          2.09205       -0.61034        0.68404
H          2.48528        1.72040        1.63073
H          4.47548        2.17975        2.85759
H          6.67590        2.95576        1.06567
H          6.81137        1.71520        2.33204
H          6.90413        5.40097        4.67818
