22

C          1.04470       -0.08954        0.14263
C          2.58540       -0.04953       -0.01486
C          3.12479        0.88929        1.08601
C          3.09000       -1.48649        0.25102
C          3.04750        0.44870       -1.40986
C          2.19839        0.76541       -2.40728
C          4.49143        0.52161       -1.64612
C          5.12074        1.42903       -2.40410
H          0.75859       -0.43955        1.14193
H          0.58439       -0.77473       -0.57885
H          0.59872        0.90293        0.01034
H          2.77637        0.57629        2.07712
H          2.78711        1.92013        0.92686
H          4.22007        0.89695        1.11865
H          2.69614       -1.87356        1.19804
H          4.18106       -1.53866        0.32394
H          2.77195       -2.16957       -0.54514
H          1.12106        0.72218       -2.29996
H          2.54955        1.08113       -3.38504
H          5.10786       -0.22131       -1.14462
H          4.59434        2.21711       -2.93154
H          6.20114        1.39802       -2.51261
