15

C          1.12327       -0.10358       -0.28471
N          2.40028        0.01466       -0.12617
N          2.75590        0.40670        1.12123
C          4.16377        0.21962        1.48076
C          4.33060        0.55437        2.93752
C          4.42636       -0.32129        3.95164
C          4.36844       -1.73536        3.80238
N          4.30871       -2.88813        3.69024
H          0.71954       -0.42981       -1.25554
H          0.38687        0.10237        0.51255
H          2.17645       -0.02041        1.84328
H          4.79784        0.88976        0.88709
H          4.48647       -0.80439        1.26069
H          4.35490        1.61663        3.16583
H          4.51473        0.05045        4.96561
