19

N          1.94903       -0.30412       -0.93743
C          3.09455       -0.01186       -0.09307
C          3.30756       -1.10350        0.97352
C          4.28128       -1.81061        0.00657
C          4.39931       -0.48412       -0.78544
C          5.42364        0.58339       -0.36263
C          4.57108        1.72487        0.11944
C          3.28176        1.39293        0.26643
H          1.25410       -0.90812       -0.50565
H          1.44655        0.52428       -1.25110
H          2.43534       -1.69241        1.27489
H          3.80421       -0.75364        1.88853
H          3.81031       -2.61636       -0.57008
H          5.20478       -2.19109        0.44869
H          4.35982       -0.59996       -1.87619
H          6.04362        0.88840       -1.21047
H          6.07329        0.23082        0.44558
H          4.97457        2.70914        0.32655
H          2.50335        2.06123        0.60426
