18

C          2.93435        0.35032        1.51995
C          2.29902        0.11326        0.15633
C          3.23786        0.47093       -0.95467
C          3.60347        1.88943       -1.29687
O          2.76378        3.00497       -0.83151
C          1.64814        2.95560       -1.65793
C          1.59737        1.87934       -2.44701
C          2.78113        1.04113       -2.27891
H          2.26428        0.01552        2.31790
H          3.14445        1.41343        1.67464
H          3.87880       -0.19455        1.61582
H          1.35324        0.65939        0.09853
H          2.05107       -0.95176        0.06646
H          4.04959       -0.25168       -0.99978
H          4.63187        2.11188       -1.55470
H          0.95932        3.77492       -1.55837
H          0.81221        1.67624       -3.16217
H          3.26610        0.69739       -3.18498
