17

C          1.14970        0.14604       -0.57004
N          2.41110       -0.06045        0.12351
N          2.78024        1.02909        0.97855
C          2.57779        2.36685        0.75587
C          3.11310        3.06397        1.81676
C          3.70509        2.11775        2.69065
C          3.51184        0.87040        2.13920
N          3.92372       -0.34595        2.56143
H          0.86693       -0.77440       -1.09061
H          1.22707        0.93382       -1.32693
H          0.33825        0.39189        0.12329
H          3.15570       -0.24750       -0.54281
H          2.06357        2.72139       -0.12553
H          3.09525        4.13822        1.94029
H          4.23296        2.32795        3.61024
H          4.25436       -0.48119        3.51097
H          3.50240       -1.17246        2.14086
