16

O          0.83322        0.61975        1.18946
C          1.82932       -0.00708        0.36853
C          3.20212        0.59204        0.36032
C          2.28587        0.81470       -0.81701
C          2.23521        0.10780       -2.14727
C          1.46274        1.08214       -2.97814
C          1.27065        2.18636       -2.25271
O          1.75865        2.16438       -0.96086
H          0.47169        0.00682        1.85438
H          1.78617       -1.08279        0.25141
H          4.06098       -0.06200        0.25027
H          3.37926        1.43255        1.02853
H          1.69483       -0.84390       -2.09199
H          3.22778       -0.06506       -2.57065
H          1.09232        0.91121       -3.97171
H          0.75544        3.09231       -2.51737
