18

O          0.76126        0.02814        0.18724
C          2.20061       -0.04216        0.09272
C          3.01002        0.95286        0.93944
O          3.92130       -0.10119        1.35262
C          2.91867       -1.09732        0.96848
C          3.56579       -2.28093        0.26074
C          2.50012       -3.27290       -0.11272
C          2.22119       -3.64788       -1.36622
H          0.50494        0.74453       -0.41850
H          2.51605       -0.05684       -0.95756
H          2.48780        1.38552        1.79840
H          3.52030        1.73982        0.37828
H          2.35112       -1.40125        1.85934
H          4.27845       -2.77307        0.93097
H          4.12765       -1.94915       -0.62061
H          1.93049       -3.71459        0.70480
H          2.75927       -3.24644       -2.21927
H          1.43723       -4.37333       -1.56504
