20

C          0.81387       -0.14646        0.00263
C          2.34322       -0.09780        0.03621
C          2.88313        1.24001       -0.50087
C          3.60145        1.25046       -1.85585
C          4.14536       -0.07487       -2.39243
O          5.57011       -0.05987       -2.34648
C          3.69692       -1.30991       -1.69279
C          2.90053       -1.32379       -0.61970
H          0.38380        0.70284        0.54408
H          0.44314       -1.05968        0.48525
H          0.42965       -0.13115       -1.02168
H          2.63102       -0.14969        1.09481
H          3.58103        1.63909        0.24744
H          2.07426        1.98332       -0.54257
H          4.41224        1.99099       -1.80202
H          2.89901        1.64906       -2.59866
H          3.87297       -0.15753       -3.44976
H          5.82086       -0.11486       -1.41137
H          4.05288       -2.25170       -2.10220
H          2.63113       -2.28439       -0.18243
