16

O          1.22206       -0.60992       -0.48758
C          2.42607        0.03529       -0.10084
C          3.05193       -0.77494        0.98289
C          4.36525       -0.90572        1.21122
C          5.01365       -1.68379        2.32537
O          6.42273       -1.33873        2.31525
C          6.56339       -0.56578        1.18144
C          5.44970       -0.29117        0.51122
H          0.82051       -0.05484       -1.17684
H          2.18010        1.03428        0.27074
H          3.06602        0.11785       -0.98371
H          2.35517       -1.28460        1.64600
H          4.93309       -2.76383        2.15893
H          4.59984       -1.42651        3.30559
H          7.56943       -0.24452        0.97089
H          5.38351        0.31081       -0.37956
