22

C          0.96044        0.06926       -0.03771
C          2.45929       -0.13808       -0.12178
O          3.17680        0.90827        0.59318
C          4.14150       -0.06779        1.08538
C          5.46344        0.08016        0.34994
C          3.16100       -1.23029        0.73750
C          2.39651       -1.72445        1.96759
C          3.70542       -2.40150       -0.07218
H          0.66138        0.93987       -0.63063
H          0.62433        0.23747        0.98972
H          0.43042       -0.80265       -0.43382
H          2.77257       -0.14045       -1.17544
H          4.29828        0.06197        2.16394
H          5.32888        0.08806       -0.73641
H          6.14116       -0.74029        0.60380
H          5.95374        1.01840        0.63083
H          2.01514       -0.89532        2.57306
H          3.04614       -2.32738        2.61162
H          1.54321       -2.34574        1.67453
H          4.24151       -2.07119       -0.96711
H          2.89183       -3.05550       -0.40259
H          4.39790       -3.00157        0.52836
