20

C          0.78283        1.41269       -0.32159
C         -0.74948        1.41505       -0.27629
C         -1.25407       -0.00253        0.01541
C         -0.75083       -0.98583       -1.04720
C          0.78155       -0.96043       -1.08197
C          1.29874        0.00163       -0.00199
C          0.69170       -0.42795        1.33959
O         -0.74438       -0.41384        1.29527
H          1.17711        2.13543        0.40274
H          1.13134        1.73466       -1.31005
H         -1.15652        1.78597       -1.22349
H         -1.08119        2.09748        0.51532
H         -2.34724       -0.01819        0.06616
H         -1.15700       -0.73472       -2.03336
H         -1.08458       -2.00099       -0.80151
H          1.13111       -0.64918       -2.07346
H          1.17385       -1.97019       -0.91180
H          2.39255       -0.01151        0.03720
H          1.00798        0.24136        2.14689
H          1.00803       -1.44166        1.60803
