24

C          1.87641        2.06694        0.41868
C          2.15284        0.72575       -0.24649
C          3.43126        0.03719        0.27048
C          3.32635       -0.37390        1.75201
C          3.33558       -1.89922        1.79617
C          3.03787       -2.34338        0.37372
C          3.69702       -1.27585       -0.49721
C          5.19421       -1.53762       -0.67767
H          1.03567        2.56350       -0.07600
H          2.74630        2.72737        0.35048
H          1.61407        1.95003        1.47407
H          1.28263        0.07170       -0.11334
H          2.25647        0.89801       -1.32481
H          4.26549        0.73791        0.13666
H          4.17372        0.02140        2.32591
H          2.41622        0.00493        2.22733
H          4.32199       -2.25844        2.11127
H          2.60279       -2.29232        2.50813
H          1.95402       -2.34616        0.20700
H          3.40907       -3.35302        0.17218
H          3.23964       -1.26294       -1.49385
H          5.72049       -1.62063        0.27862
H          5.65973       -0.72737       -1.24744
H          5.35330       -2.46867       -1.23087
