19

N          1.46848       -0.04794        1.06997
C          2.40799       -0.03114       -0.01829
C          2.40975        1.24895       -0.88469
C          3.76553        1.14619       -1.63613
C          4.37525       -0.15136       -1.06418
C          3.88628       -0.11001        0.38719
C          3.53524       -1.30473       -1.56448
C          2.35029       -1.22726       -0.94139
H          0.60078        0.39534        0.78345
H          1.23979       -1.00868        1.31531
H          2.39674        2.15506       -0.26694
H          1.56137        1.29570       -1.57934
H          4.39083        2.01445       -1.40145
H          3.62157        1.10354       -2.72171
H          5.45198       -0.27267       -1.19536
H          4.23707        0.77315        0.93479
H          4.14603       -1.01033        0.95990
H          3.82436       -2.01258       -2.32680
H          1.49714       -1.86526       -1.11504
