13

C          1.49984        0.37708       -0.76556
C          2.49013        0.13903        0.44945
C          3.12426        1.41470        0.02242
N          3.94423        2.34939        0.47254
N          3.97545        3.48270       -0.27648
C          3.14326        3.60100       -1.35818
N          2.25085        2.68169       -1.78884
C          2.32594        1.58655       -1.04899
H          0.46467        0.57153       -0.46156
H          1.50143       -0.42367       -1.51029
H          3.10299       -0.76453        0.35328
H          2.00414        0.12845        1.42909
H          3.20199        4.53324       -1.90921
