20

C          0.78371        0.33565       -0.38951
C          2.22801        0.45653       -0.06336
O          3.05757       -0.58814       -0.57465
C          3.24093        0.71891       -1.15181
C          4.39847        1.56003       -0.82620
C          4.44766        2.90582       -0.79096
C          3.27321        3.79315       -1.09857
C          5.71324        3.63301       -0.42848
H          0.25480       -0.17593        0.42024
H          0.61527       -0.22484       -1.31480
H          0.34360        1.33061       -0.50848
H          2.41421        0.81296        0.94072
H          2.88339        0.83807       -2.16985
H          5.30326        1.00141       -0.58924
H          2.36460        3.23188       -1.33441
H          3.49858        4.43158       -1.95905
H          3.04952        4.43453       -0.23980
H          6.53579        2.94671       -0.20172
H          5.55012        4.25930        0.45474
H          6.03214        4.27473       -1.25615
