17

C          1.74369        0.67629        0.79040
N          2.50844       -0.09335       -0.18625
N          2.95688        0.76562       -1.23531
C          2.02475        1.27732       -2.23268
C          4.32500        0.82651       -1.40341
N          5.22959        0.29385       -0.65485
C          4.90811        1.53941       -2.51244
C          5.37640        2.13261       -3.44590
H          1.49968        0.03737        1.64474
H          0.80126        1.04245        0.37049
H          2.31907        1.52836        1.16718
H          1.94560       -0.86021       -0.56013
H          0.98453        1.07069       -1.96050
H          2.20788        0.81485       -3.20781
H          2.13271        2.36306       -2.32598
H          4.68377       -0.17723        0.07995
H          5.80018        2.65414       -4.27255
