22

N          0.92188        0.08215        0.08714
C          2.39099        0.11368        0.10054
C          2.98256       -1.30264        0.32261
N          2.43221       -2.23281       -0.68158
C          4.51832       -1.32588        0.27126
C          5.14755       -0.50278        1.40094
C          6.64850       -0.53670        1.35371
C          7.41089        0.55101        1.19344
H          0.57360        1.03805        0.01598
H          0.59424       -0.26580        0.98942
H          2.71203        0.79774        0.89126
H          2.73761        0.52083       -0.85648
H          2.65901       -1.66529        1.30515
H          2.76516       -1.95504       -1.60502
H          1.42365       -2.03923       -0.72140
H          4.86813       -0.95538       -0.70111
H          4.86492       -2.36576        0.35323
H          4.82108       -0.89793        2.37110
H          4.80753        0.53587        1.34898
H          7.12568       -1.50778        1.47853
H          6.97900        1.53955        1.07521
H          8.49437        0.47431        1.18392
