16

C          1.04379       -0.65614        0.16404
C          2.18735        0.02651        0.02963
C          3.04270        0.49389        1.17997
C          4.46740       -0.07624        1.12896
C          5.32203        1.06557        0.66840
C          4.69525        2.24317        0.63212
C          3.30528        1.98120        1.03705
O          2.48654        2.87715        1.17931
H          0.46926       -0.94875       -0.71016
H          0.64764       -0.92805        1.13814
H          2.52417        0.28245       -0.97417
H          2.58306        0.29083        2.15353
H          4.55555       -0.93822        0.45917
H          4.79407       -0.38989        2.12712
H          6.36537        0.93549        0.40938
H          5.07031        3.21340        0.35531
