15

C         -1.49286        1.41389       -0.19779
C         -1.61326       -0.06911       -0.62874
C         -0.64714       -0.80662        0.27165
C          0.29350       -1.84761       -0.21002
N          1.53681       -1.51845       -0.05734
N          1.58331       -0.14969        0.38191
C          0.36942        0.26268        0.45574
N         -0.19643        1.50840        0.48074
H         -2.30571        1.70995        0.47112
H         -1.50071        2.06741       -1.07738
H         -1.35382       -0.19157       -1.68662
H         -2.64080       -0.42758       -0.50285
H         -1.08578       -1.09425        1.23068
H         -0.05349       -2.81984       -0.58468
H         -0.27170        1.88206        1.42665
