14

O          1.09613       -0.03615       -0.00446
C          2.51613       -0.02148        0.00483
C          2.96206        0.14871        1.42615
C          3.70051        1.17089        1.88202
C          3.01631       -1.28429       -0.54016
C          3.42077       -2.31279       -1.01044
C          3.92966       -3.61938       -1.62727
C          4.32359       -4.64051       -2.11977
H          0.81220        0.76956        0.45725
H          2.84707        0.81413       -0.62114
H          2.64650       -0.62378        2.12534
H          4.04497        1.96699        1.22889
H          3.98373        1.22525        2.92919
H          4.66942       -5.54630       -2.56107
