22

C          2.67007        1.60771       -0.29128
C          2.35047        0.15056        0.01027
C          2.98272       -0.33875        1.31872
C          2.62724       -1.81374        1.60432
C          3.73968       -2.62046        0.92797
C          4.95778       -1.76349        1.12095
C          5.35549       -0.70690        0.13323
C          4.49742       -0.34350        1.31982
H          2.18195        1.91068       -1.22285
H          3.74570        1.76723       -0.41118
H          2.30986        2.26077        0.50922
H          2.66532       -0.46829       -0.83736
H          1.26080        0.04301        0.07955
H          2.61242        0.28259        2.14476
H          1.62724       -2.10108        1.26799
H          2.67690       -1.98675        2.68866
H          3.52530       -2.75774       -0.13742
H          3.85296       -3.60623        1.38739
H          5.68850       -2.17209        1.80443
H          4.92256       -0.72748       -0.85865
H          6.38797       -0.37065        0.14169
H          4.93277        0.22060        2.13629
