18

C          0.99344        0.11380        0.21358
C          2.49048       -0.05991       -0.03014
O          3.20569        0.41338        1.10547
C          2.88533       -1.52498       -0.30976
C          2.77142       -1.68353       -1.83074
C          3.16373       -0.33550       -2.35045
O          2.11835        0.63435       -2.41636
C          2.96628        0.67006       -1.26078
H          0.67685       -0.44541        1.10102
H          0.39069       -0.22568       -0.63501
H          0.75271        1.16650        0.40063
H          2.87458       -0.06870        1.88242
H          2.27336       -2.24957        0.23610
H          3.92766       -1.69157       -0.00545
H          1.74334       -1.92680       -2.12152
H          3.43209       -2.47440       -2.19716
H          4.01397       -0.28084       -3.00929
H          3.66946        1.47490       -1.12123
