16

C          1.52719       -0.59519        0.81379
C          2.40144        0.07214        0.04960
C          3.16807       -0.54200       -1.08810
C          4.64441       -0.44775       -0.89904
C          5.45933       -1.29382       -0.29426
O          6.78076       -0.92859       -0.35622
C          6.68906        0.26293       -1.16587
O          5.32338        0.62188       -1.46916
H          0.99495       -0.09321        1.61574
H          1.31946       -1.64990        0.65896
H          2.57180        1.12972        0.23794
H          2.88622       -0.03391       -2.01825
H          2.88464       -1.59420       -1.21907
H          5.23910       -2.20713        0.22746
H          7.22065        0.08555       -2.10909
H          7.16879        1.09294       -0.63728
