14

C          1.05678       -0.05343       -0.03736
C          2.52151        0.14717       -0.04002
C          3.35295        1.25367       -0.03666
C          2.94128        2.63990       -0.02875
O          3.73235        3.57802       -0.02655
C          4.68064        0.73863       -0.04258
C          4.56960       -0.63005       -0.04889
O          3.26398       -0.99706       -0.04738
H          0.51767        0.89777       -0.03649
H          0.75174       -0.61573        0.85063
H          0.74845       -0.61574       -0.92423
H          1.85493        2.82569       -0.02460
H          5.60011        1.30865       -0.04215
H          5.28471       -1.44101       -0.05459
