20

C          0.92684       -0.00608        0.24088
C          2.41377        0.16268       -0.04841
C          2.77166        0.12033       -1.53734
C          2.14153        1.26496       -2.31944
O          2.52141        1.18885       -3.68773
C          3.11484        1.24963        0.79687
C          3.98976        0.10787        1.30366
O          3.16088       -0.87821        0.64890
H          0.34918        0.84661       -0.12846
H          0.73763       -0.08269        1.31799
H          0.53578       -0.91458       -0.22957
H          2.45732       -0.83496       -1.97673
H          3.86141        0.15432       -1.66991
H          2.45013        2.23946       -1.92905
H          1.04960        1.21899       -2.28256
H          3.49272        1.20577       -3.72993
H          2.49742        1.71401        1.57202
H          3.65115        2.02631        0.24634
H          4.00467       -0.02848        2.38807
H          5.01082        0.08919        0.91060
