17

C          1.19744        0.01306       -0.14806
N          2.62141        0.19580       -0.33247
C          3.22236        1.40936       -0.25915
N          2.63250        2.54716       -0.34041
N          4.56071        1.27696       -0.06017
C          5.35103        2.47976        0.10950
C          6.84695        2.21527        0.05791
C          8.13015        1.98840        0.01366
H          0.97552       -1.04671        0.00788
H          0.64777        0.34904       -1.03272
H          0.83711        0.56528        0.72713
H          3.16765       -0.51312        0.14750
H          1.63772        2.40460       -0.51680
H          4.99203        0.61501       -0.69323
H          5.11778        2.93623        1.07857
H          5.12596        3.21387       -0.67398
H          9.17926        1.80490       -0.02083
