20

C          0.98177        2.23896        0.85117
O          2.40102        2.16546        0.85494
C          2.86277        0.84014        1.10673
C          4.38419        0.82860        1.09286
C          4.97244        1.74788        2.15811
O          6.39900        1.63085        2.10911
C          7.02354        2.45214        3.00603
C          8.35321        2.52672        3.07288
H          0.69241        3.27421        0.65137
H          0.58142        1.94629        1.82649
H          0.56691        1.60096        0.06510
H          2.48457        0.16768        0.32828
H          2.48957        0.49817        2.07906
H          4.75182        1.15187        0.11101
H          4.75197       -0.19377        1.24040
H          4.61555        1.44605        3.15083
H          4.68065        2.78822        1.96886
H          6.37769        3.03161        3.65240
H          8.97518        1.93484        2.40994
H          8.84082        3.17989        3.78702
