24

C          0.78672       -0.26676        1.22333
C          2.15937       -0.88076        1.49921
C          2.21032       -2.28133        0.89933
O          3.12035        0.00433        0.92114
C          4.51288       -0.11422        1.24640
C          5.18029       -1.25193        0.46524
C          5.14409        1.20550        0.76525
C          4.77288       -0.25105        2.75037
H         -0.01672       -0.88880        1.62393
H          0.62539       -0.13069        0.14882
H          0.71474        0.72620        1.68225
H          2.27730       -0.92685        2.58654
H          2.41991       -2.24942       -0.17363
H          1.27245       -2.82474        1.05927
H          2.99327       -2.87464        1.37845
H          4.87990       -1.23193       -0.58839
H          4.91281       -2.23351        0.85957
H          6.27264       -1.18341        0.51605
H          5.04878        1.31164       -0.32172
H          6.20738        1.26681        1.02290
H          4.63129        2.06851        1.20762
H          4.37802       -1.19341        3.14472
H          4.28871        0.55936        3.30596
H          5.84498       -0.23127        2.97269
