18

O          0.91582        0.12529       -0.01135
C          2.10701       -0.06931        0.00707
C          3.09448       -1.32103       -0.17941
C          3.94959       -0.52565        0.86346
C          5.37783       -0.05830        1.02576
C          5.18116        1.34961        1.64268
C          3.70295        1.72544        1.37137
C          3.35956        0.78965        0.24500
H          3.52687       -1.41492       -1.17844
H          2.70385       -2.27829        0.16793
H          3.57334       -0.77515        1.87376
H          5.89273        0.01304        0.06084
H          5.96331       -0.70906        1.68153
H          5.86766        2.06323        1.17433
H          5.38144        1.34997        2.71933
H          3.60053        2.77835        1.09370
H          3.08995        1.54472        2.26225
H          3.80309        1.10825       -0.71102
