20

C          1.10879       -0.11665        0.18204
O          2.52018        0.04878        0.14008
C          2.96078        1.10835       -0.72803
C          2.47426        2.46518       -0.19764
C          4.51273        1.04582       -0.82024
C          5.00177       -0.29156       -1.37439
C          5.02037        2.18152       -1.69366
C          5.45583        3.15573       -2.44289
H          0.89138       -1.07033        0.66924
H          0.68132       -0.13281       -0.82518
H          0.64454        0.67370        0.78004
H          2.53852        0.94275       -1.72785
H          2.78501        2.61164        0.84142
H          1.38159        2.52574       -0.21718
H          2.84047        3.30321       -0.79837
H          4.93345        1.16608        0.18651
H          4.61598       -0.47028       -2.38420
H          4.68754       -1.12458       -0.73719
H          6.09605       -0.31140       -1.43049
H          5.81530        3.95113       -3.05442
