17

N          1.06435       -0.30653        0.18641
N          2.44592        0.10979        0.22780
C          2.70455        1.51034       -0.08459
C          4.09727        2.00006        0.07767
C          5.26714        1.35691        0.10707
C          5.61213       -0.08440       -0.01263
N          4.57635       -1.06806       -0.17403
C          3.31974       -0.92459       -0.04878
H          0.43710        0.49728        0.13649
H          0.83722       -0.78233        1.06303
H          2.08727        2.10855        0.59951
H          2.35919        1.74016       -1.09876
H          4.15296        3.08900        0.15978
H          6.15494        1.98133        0.21593
H          6.20592       -0.35819        0.86699
H          6.28908       -0.18295       -0.87100
H          2.76379       -1.87485       -0.15899
