20

C          0.94188        0.13706       -0.00525
C          2.48692        0.05438        0.07363
C          2.98526       -0.28547       -1.34630
C          2.98528        1.45730        0.47816
C          2.97121       -0.99869        1.07941
C          2.19233       -1.79240        1.83778
C          4.43986       -1.21133        1.28269
O          5.31215       -0.59026        0.68949
H          0.62320        0.89592       -0.73020
H          0.50274        0.41174        0.96101
H          0.50271       -0.81562       -0.32377
H          2.59882        0.43103       -2.08095
H          2.65283       -1.28431       -1.65278
H          4.07616       -0.25949       -1.42565
H          2.59884        2.22401       -0.20398
H          4.07618        1.53781        0.45583
H          2.65286        1.71783        1.48998
H          1.10902       -1.74950        1.79697
H          2.59739       -2.52146        2.53435
H          4.71330       -1.98428        2.02127
