17

N          0.84486       -0.13390        0.17857
C          2.30873       -0.09113        0.16544
C          2.82560       -1.32598       -0.53074
C          3.61254       -1.28190       -1.61570
C          4.00499       -0.01774       -2.18579
C          3.63121        1.15020       -1.64327
C          2.79708        1.22083       -0.45153
C          2.47229        2.41621        0.07319
H          0.53826       -1.03998        0.52035
H          0.52782       -0.06427       -0.78706
H          2.66394       -0.12986        1.20341
H          2.55996       -2.29001       -0.10784
H          3.97520       -2.19121       -2.08471
H          4.62842       -0.03683       -3.07484
H          3.95743        2.07972       -2.10152
H          2.80845        3.35230       -0.35900
H          1.84055        2.47734        0.95493
