16

N          1.47933        0.19599       -0.89579
C          1.02534       -0.96701       -0.16090
C          0.86848        0.42315        0.43676
C         -0.60987        0.45690        0.81231
N         -0.80767       -1.00815        1.10689
C         -0.42119       -1.49222       -0.23348
C         -1.35665       -0.61308       -1.06648
C         -1.48353        0.56709       -0.40884
H          0.83364        0.44617       -1.63913
H          1.73151       -1.63831        0.31582
H          1.51935        0.95879        1.09366
H         -0.89079        1.07595        1.65211
H         -1.80334       -1.19536        1.25775
H         -0.54589       -2.56586       -0.38565
H         -1.76058       -0.85598       -2.03672
H         -2.01518        1.44776       -0.73384
