16

C          0.99745        0.03342       -0.00673
C          2.50343       -0.00390       -0.04872
O          3.15902        0.71821        0.70403
C          3.18168       -0.93143       -1.01828
C          2.37767       -1.80719       -1.93390
C          4.52846       -0.92222       -1.00883
C          5.31011       -1.74423       -1.86830
C          5.96054       -2.44141       -2.59728
H          0.67392        0.75591        0.74890
H          0.60353       -0.94714        0.27286
H          0.60107        0.35512       -0.97327
H          1.29891       -1.69367       -1.81519
H          2.60542       -2.86299       -1.74989
H          2.60537       -1.57640       -2.98049
H          5.07915       -0.27315       -0.33029
H          6.53083       -3.06322       -3.24750
