22

N          0.69507        0.63551        2.35689
C          2.12313        0.41972        2.57472
C          2.84900        0.15006        1.25188
C          4.35311       -0.05353        1.42997
C          4.71462       -1.27723        2.25606
N          6.14424       -1.53183        2.36189
C          5.22856        0.36488        0.25697
C          5.21672        1.19292        1.51110
H          0.23437        0.75564        3.25848
H          0.28237       -0.19539        1.93505
H          2.24208       -0.42524        3.25989
H          2.55040        1.30085        3.06538
H          2.66439        0.99009        0.56824
H          2.42971       -0.74050        0.76683
H          4.22680       -2.16040        1.82816
H          4.33143       -1.15015        3.27290
H          6.50234       -1.79694        1.44801
H          6.29330       -2.33908        2.96503
H          4.75633        0.78102       -0.62658
H          6.13580       -0.18141        0.02924
H          4.73896        2.16552        1.46792
H          6.10008        1.17430        2.14060
