20

N          1.00649       -0.03667        0.03807
C          2.45493        0.07995       -0.07454
C          2.91547        1.28211        0.70485
C          3.59690        2.31313        0.18871
C          3.06721       -1.20488        0.41917
C          2.78782       -2.53303       -0.24658
C          4.12731       -1.88074       -0.41650
N          5.30296       -2.45206        0.23324
H          0.58387        0.82507       -0.30190
H          0.74452       -0.12442        1.01600
H          2.69114        0.21454       -1.13743
H          2.69021        1.29383        1.76967
H          3.86342        2.35326       -0.86301
H          3.90892        3.14187        0.81748
H          3.15517       -1.23046        1.49991
H          2.11322       -2.54764       -1.09518
H          2.71173       -3.41023        0.38494
H          4.32493       -1.48185       -1.40984
H          5.09129       -2.76504        1.17937
H          6.03407       -1.74740        0.32892
