20

N          0.96930        0.17239       -0.30181
C          2.41293        0.02138       -0.10349
C          2.79800       -1.44072        0.15440
C          2.85170       -1.75529        1.65707
N          3.30210       -0.63155        2.51538
C          2.25721        0.44489        2.44270
C          2.88594        0.86136        1.08625
C          4.18382        0.30637        1.74024
H          0.66819       -0.40178       -1.08887
H          0.75681        1.13624       -0.55727
H          2.91416        0.35911       -1.01832
H          3.79786       -1.61068       -0.26881
H          2.13818       -2.14276       -0.36906
H          3.53157       -2.60112        1.81301
H          1.86641       -2.09786        1.99884
H          2.35966        1.19880        3.23498
H          1.21356        0.11269        2.44257
H          2.88297        1.93802        0.88543
H          4.70843        1.02917        2.37966
H          4.93473       -0.15089        1.08765
