16

O          1.37523       -0.50499        0.67035
C          2.59424       -0.04973        0.09829
C          2.73492        1.40813        0.40495
C          2.71301        2.19358       -0.67953
C          2.56597        1.36362       -1.90128
C          1.13973        1.05480       -2.36883
O          1.27840       -0.34703       -2.03413
C          2.58451       -0.10935       -1.44226
H          0.66109        0.00038        0.24305
H          3.42542       -0.62541        0.51405
H          2.83111        1.77573        1.41729
H          2.79802        3.26540       -0.68268
H          3.27028        1.61056       -2.69964
H          0.95699        1.20255       -3.43700
H          0.32379        1.50579       -1.79513
H          3.36630       -0.73056       -1.89420
