17

N          1.13818        0.10496        0.01851
N          2.55036       -0.03072        0.04060
C          3.10854       -1.28910       -0.09163
C          2.59656       -2.41840       -0.59708
C          3.24653        1.18756        0.14634
N          2.64185        2.23955        0.64066
C          4.65595        1.34147       -0.34584
C          5.31064        2.50745       -0.28005
H          0.69656       -0.78068        0.26148
H          0.85142        0.32514       -0.93760
H          4.11809       -1.32159        0.31271
H          1.61213       -2.45889       -1.04843
H          3.18330       -3.33091       -0.59971
H          1.70440        1.87798        0.88129
H          5.11855        0.48203       -0.81358
H          4.85055        3.38972        0.15727
H          6.31258        2.60798       -0.67933
