20

C          0.74045        0.11268        0.37434
C          2.16730        0.55346        0.06494
C          2.95384       -0.45764       -0.76871
C          2.65325       -0.03097       -2.17124
C          2.25317       -1.05763       -3.20809
C          3.58433       -0.37309       -3.31413
C          2.02561        1.32884       -2.11262
O          2.12818        1.74619       -0.74043
H          0.73137       -0.74534        1.05235
H          0.19125       -0.15945       -0.53333
H          0.18571        0.93524        0.83950
H          2.68505        0.77812        1.00325
H          2.67544       -1.49241       -0.54550
H          4.02670       -0.33942       -0.57739
H          2.25686       -2.10715       -2.93591
H          1.48517       -0.79447       -3.92731
H          4.47771       -0.94843       -3.09704
H          3.71483        0.34882       -4.11278
H          2.53901        2.06554       -2.73645
H          0.96633        1.29976       -2.38889
