18

C          0.92722       -0.12872        0.16376
C          2.41871        0.04075       -0.10770
C          2.77342       -0.03046       -1.59160
C          2.17116        1.05731       -2.43693
O          1.82802        2.15526       -2.00622
C          3.11011        1.14024        0.72680
C          3.95009        0.00248        1.29614
O          3.15980       -0.99280        0.60727
H          0.34925        0.70057       -0.25611
H          0.71949       -0.16168        1.24004
H          0.55111       -1.05972       -0.27350
H          2.43072       -0.98462       -2.00600
H          3.85981        0.01263       -1.74326
H          2.09649        0.83062       -3.51390
H          2.47689        1.63903        1.46685
H          3.67766        1.88994        0.16985
H          3.90093       -0.12131        2.38108
H          4.99228       -0.02139        0.96420
