19

N          1.04141        0.03344       -0.02226
C          2.49989        0.04504        0.06356
C          3.05776        1.24531        0.84994
C          2.89269        0.93458        2.37038
C          3.87789       -0.19118        1.93669
N          4.53424        0.93078        1.11976
C          3.09415       -1.08190        0.95209
N          3.97002       -2.00649        0.22766
H          0.71627        0.88413       -0.48036
H          0.62338        0.02561        0.90696
H          2.91003        0.02835       -0.95327
H          2.84476        2.25603        0.49879
H          1.90481        0.62491        2.72124
H          3.29256        1.68688        3.06168
H          4.49253       -0.65562        2.70913
H          5.06142        0.60037        0.31396
H          2.32362       -1.65480        1.48097
H          4.65906       -1.48832       -0.31304
H          3.40427       -2.50678       -0.45962
