16

C          1.46145        0.98143        0.09937
C          2.35090        0.00668       -0.13363
C          3.19424       -0.09494       -1.37105
C          4.69020       -0.12907       -1.05234
O          5.14167       -0.16334        0.09304
C          5.62460       -0.15121       -2.23252
C          5.47895       -1.40836       -3.02813
O          5.08923       -1.42046       -4.19145
H          0.88778        0.99444        1.02164
H          1.28270        1.78062       -0.61265
H          2.49053       -0.76703        0.61904
H          3.00730        0.74955       -2.04323
H          2.93510       -1.02110       -1.89437
H          6.65910       -0.09003       -1.87931
H          5.43307        0.72198       -2.86290
H          5.73384       -2.34545       -2.50405
