18

C          2.72133        0.01714        1.69871
O          2.05582       -0.30113        0.48230
C          2.88401       -1.01925       -0.44868
C          3.15136       -2.46430       -0.12378
C          2.20133       -2.11026       -1.22650
O          3.98182       -0.31468       -1.06115
C          3.61291        0.48867       -2.10817
C          4.50313        1.23656       -2.76737
H          1.96659        0.13199        2.48148
H          3.26707        0.95655        1.58759
H          3.41002       -0.77701        2.00528
H          2.73810       -2.86323        0.79385
H          4.12292       -2.86082       -0.38978
H          1.14295       -2.26259       -1.05076
H          2.51766       -2.29949       -2.24448
H          2.56281        0.46095       -2.37160
H          5.54746        1.23684       -2.47653
H          4.20725        1.85265       -3.60769
