16

C          1.00621        0.13438       -0.10943
C          2.52830        0.04619       -0.08830
C          3.03497        0.26711        1.32763
C          3.46959        0.45661        2.54223
C          3.02759       -1.28825       -0.63141
O          2.27716       -2.15107       -1.09827
C          4.53654       -1.51701       -0.61788
O          4.92115       -2.49125       -1.57729
H          0.66437        1.11074        0.24923
H          0.55155       -0.63310        0.52841
H          0.61971       -0.00728       -1.12485
H          2.93483        0.83180       -0.73641
H          3.81893        0.61369        3.53750
H          4.83725       -1.86840        0.37279
H          5.05607       -0.58517       -0.85513
H          4.18326       -3.13074       -1.62296
