18

C          1.03243       -0.06319       -0.08131
C          2.55439       -0.02855       -0.00446
O          2.99044       -1.23107        0.67367
C          3.39947       -0.86712        2.00185
C          3.56886        0.60399        1.97136
C          3.09711        1.09630        0.82364
C          3.14433        2.48524        0.44982
C          2.72805        2.99588       -0.71504
H          0.70697       -0.93444       -0.66025
H          0.62294        0.83480       -0.55169
H          0.58556       -0.16907        0.91395
H          2.99334       -0.04238       -1.00814
H          4.33429       -1.38492        2.23382
H          2.62591       -1.17082        2.71319
H          4.01976        1.16983        2.77155
H          3.56995        3.16940        1.18373
H          2.30187        2.38836       -1.50625
H          2.81114        4.06095       -0.90582
