18

C          0.91402        0.14007       -0.05190
C          2.41469        0.09312        0.00218
C          3.03003       -0.61983        1.18794
C          3.32373        0.24691        2.38649
C          3.10257        1.56091        2.53283
C          3.13184        0.64975       -0.99145
C          4.65184        0.64975       -0.99145
C          5.95570        0.64975       -0.99145
H          0.46051       -0.33571        0.82370
H          0.54579       -0.38533       -0.93964
H          0.56188        1.17591       -0.08074
H          3.96365       -1.11382        0.89062
H          2.37022       -1.43777        1.50337
H          3.79287       -0.27905        3.21672
H          2.65618        2.16566        1.75086
H          3.38456        2.07042        3.44926
H          2.65874        1.14476       -1.83409
H          7.02056        0.65055       -0.98697
