20

C          1.03107        0.08459       -0.10004
C          2.54477       -0.05475        0.05086
C          3.00888       -1.43164       -0.42913
C          4.52441       -1.51583       -0.33338
O          5.17724       -0.60227       -1.21268
C          4.59331        0.70952       -1.36575
C          4.56342        1.58731       -0.14920
C          3.27682        1.02200       -0.70304
H          0.50892       -0.68829        0.47306
H          0.72510       -0.00060       -1.14838
H          0.69416        1.06149        0.26465
H          2.77724        0.04355        1.11946
H          2.70169       -1.58671       -1.47131
H          2.55032       -2.21963        0.17840
H          4.85393       -2.52221       -0.61149
H          4.87103       -1.33127        0.68960
H          4.79395        1.20392       -2.31258
H          4.75198        2.64577       -0.28857
H          4.95886        1.19347        0.77899
H          2.61839        1.70765       -1.22520
