16

N          1.24669        0.01875       -0.16802
C          2.59754        0.07723       -0.01193
N          3.34023       -0.29151       -1.00732
C          3.27405        0.54466        1.24735
C          2.49911        0.92879        2.28240
C          4.80927        0.53832        1.23050
C          5.31593        1.03678        2.57409
C          5.75055        1.46436        3.72662
H          0.82600       -0.29916       -1.02770
H          0.60878        0.29141        0.56355
H          2.73875       -0.57864       -1.78001
H          1.41875        0.92408        2.26981
H          2.92218        1.27649        3.21969
H          5.18297        1.19759        0.43984
H          5.18277       -0.47719        1.06117
H          6.11030        1.81320        4.66692
