18

C         -1.48360        0.11670        0.92209
O         -1.32995       -1.31284        0.65902
C         -0.27252       -1.00405       -0.30347
C          1.09839       -1.17612        0.34166
C          1.99433       -0.02954       -0.08920
O          1.38939        1.21009        0.29135
C          0.24765        1.51464       -0.51392
C         -0.80587        0.43532       -0.41708
H         -0.94855        0.41180        1.83039
H         -2.53448        0.40702        0.99734
H         -0.38757       -1.58041       -1.22872
H          1.53709       -2.13918        0.05932
H          1.01084       -1.16341        1.43431
H          2.18925       -0.03757       -1.16755
H          2.95675       -0.09829        0.42787
H          0.57749        1.64271       -1.55182
H         -0.15460        2.47664       -0.18194
H         -1.54903        0.54846       -1.21830
