14

C          1.16392        0.02047       -0.00772
O          2.58532       -0.00353       -0.03962
C          3.19350       -0.74868       -1.03003
C          2.56760       -1.46459       -1.98158
C          4.70556       -0.75833       -1.04285
O          5.35217       -1.38559       -1.87658
C          5.43640       -0.00411       -0.04039
C          6.04957        0.61732        0.78558
H          0.85665        0.65176        0.83135
H          0.75843       -0.98263        0.16002
H          0.75843        0.45960       -0.92506
H          1.49046       -1.52720       -2.06478
H          3.13178       -2.02372       -2.72473
H          6.59816        1.16605        1.51493
