22

C          1.02386        0.10938        0.02561
C          2.54010        0.09928       -0.05618
C          3.02687       -0.00496       -1.49574
O          4.45577       -0.00735       -1.49790
C          4.97238       -0.09071       -2.83405
C          6.50524       -0.07866       -2.79284
C          7.06755        1.18891       -2.16421
O          6.96641       -1.19879       -2.03317
H          0.69909        0.18451        1.06790
H          0.60321       -0.80896       -0.39523
H          0.60658        0.96039       -0.52242
H          2.93919       -0.73773        0.52886
H          2.94341        1.00902        0.40403
H          2.66300        0.84907       -2.07864
H          2.66066       -0.93164       -1.95238
H          4.60166        0.75216       -3.42771
H          4.62670       -1.03115       -3.27867
H          6.89663       -0.18563       -3.81003
H          6.75649        1.29045       -1.11895
H          6.74961        2.07911       -2.71488
H          8.16259        1.15435       -2.15964
H          6.45669       -1.17452       -1.20000
