16

C          0.95758        0.12766        0.05352
C          2.48003        0.10046        0.02989
C          3.08388        1.20131        0.86834
C          4.37867        0.60178        1.32233
O          5.32239        1.24466        1.76107
O          4.34862       -0.76456        1.25732
C          3.14281       -1.08997        0.63914
C          2.69215       -2.34842        0.66927
H          0.58587        1.08494       -0.32784
H          0.56514       -0.00636        1.06759
H          0.53973       -0.66454       -0.57672
H          2.82712        0.19892       -1.00684
H          2.48452        1.44541        1.75187
H          3.26214        2.10227        0.27483
H          3.26697       -3.12870        1.15964
H          1.75460       -2.63768        0.20796
