18

C          1.01355       -0.05316       -0.08090
N          2.46556       -0.03088       -0.22819
N          3.13222       -0.99240        0.45252
C          4.43242       -0.92999        0.48600
C          5.32119        0.11028       -0.14784
C          5.16188       -2.02252        1.25305
C          4.55824       -3.39584        1.27687
O          6.23223       -1.75318        1.79270
H          0.57285        0.78468       -0.62922
H          0.72891        0.03933        0.97230
H          0.59239       -0.97990       -0.48291
H          2.79577        0.91221       -0.00995
H          4.76781        0.88721       -0.67624
H          5.98942       -0.38048       -0.86130
H          5.92332        0.59134        0.62855
H          3.58974       -3.42987        0.77082
H          4.41654       -3.70365        2.31490
H          5.23318       -4.08886        0.76906
