18

C          0.99662        0.03803        0.01770
C          2.50660       -0.02472       -0.09494
C          3.16970        0.47133       -1.34542
C          2.68791        1.45067       -2.12224
C          3.39715        1.95414       -3.33608
O          2.55171        1.76534       -4.45664
N          3.12905       -0.54836        0.92331
N          4.47986       -0.60072        0.86823
H          0.51615        0.40354       -0.88993
H          0.72322        0.68461        0.85708
H          0.61599       -0.97103        0.21565
H          4.11571       -0.00751       -1.57834
H          1.76025        1.96153       -1.88072
H          4.34624        1.43969       -3.51793
H          3.60271        3.02375       -3.23293
H          2.43334        0.80601       -4.56333
H          4.84002       -0.95018        1.75944
H          4.88643        0.32922        0.75108
