14

C         -0.47956        0.30331        0.10041
O         -0.27580       -1.03786       -0.36015
C          0.89550       -0.30707        0.04098
C          1.53518       -0.79865        1.25629
N          2.15328       -0.01129        2.07909
N          2.66786       -0.82046        3.14075
C          2.33703       -2.04879        2.90488
C          1.55536       -2.22478        1.65406
H         -0.94560        0.44225        1.06848
H         -0.73878        1.05339       -0.63620
H          1.56288        0.03446       -0.74079
H          2.59491       -2.89862        3.54981
H          0.55793       -2.61088        1.86617
H          2.08945       -2.84696        0.93570
