20

C          0.86142        0.07641       -0.18035
C          2.37676        0.10584       -0.03555
C          2.92223       -1.09684        0.74783
O          2.42873       -2.33887        0.24707
C          3.02242       -2.77551       -0.96785
C          4.46223       -1.08703        0.92995
N          5.26345       -0.16868        0.31928
N          5.04381       -1.99013        1.65817
H          0.50759        1.01592       -0.61677
H          0.37225       -0.05384        0.78984
H          0.54460       -0.73757       -0.84012
H          2.67156        1.03199        0.47272
H          2.81160        0.14865       -1.04020
H          2.51994       -1.02212        1.76737
H          2.43388       -3.61534       -1.34766
H          4.04128       -3.13110       -0.79152
H          3.02323       -1.98898       -1.72646
H          4.98262        0.16737       -0.59265
H          6.24017       -0.44375        0.36141
H          4.32631       -2.62812        2.03001
