16

O          1.08097        0.03033       -0.00467
C          2.49529        0.09225       -0.13977
C          2.91801        0.55723       -1.51634
C          2.03711        0.90007       -2.47370
O          4.29658        0.57974       -1.65827
C          4.80283        0.47296       -2.98511
C          6.32042        0.55809       -2.97588
C          7.62221        0.63111       -2.96796
H          0.90700       -0.28406        0.89723
H          2.89810       -0.90871        0.04514
H          2.88449        0.77942        0.61874
H          0.96774        0.85565       -2.28032
H          2.31571        1.26075       -3.45467
H          4.44749        1.29834       -3.61171
H          4.50282       -0.48576       -3.42365
H          8.68592        0.69215       -2.95573
