17

C          1.04848        0.00958        0.05220
C          2.52749        0.11155        0.07546
C          3.35592        1.21355        0.13694
C          4.69176        0.74572        0.14604
C          4.65302       -0.63310        0.08765
C          5.74593       -1.63351        0.04877
O          5.28644       -2.78882        0.73609
N          3.32856       -1.00233        0.02905
H          0.58671        1.00201        0.04532
H          0.68703       -0.52587        0.93623
H          0.71219       -0.52685       -0.84079
H          3.03245        2.24620        0.17165
H          5.58600        1.35341        0.18508
H          6.65311       -1.26665        0.53843
H          5.98578       -1.90904       -0.98261
H          5.22883       -2.53401        1.67358
H          3.01233       -1.96251       -0.02046
