14

C          1.37461       -0.65354        0.41970
N          2.39892        0.31700        0.38993
C          3.04122       -0.43767        1.33234
C          4.14881       -0.05762        2.08008
C          4.69599       -0.99259        2.88764
N          4.20801       -2.22862        2.81811
C          3.10430       -2.45075        1.94506
C          2.28337       -1.61448        1.22310
H          0.98156       -0.83848       -0.58578
H          0.54251       -0.16886        0.96094
H          2.89333        0.35030       -0.50524
H          4.46727        0.96422        2.07081
H          5.52066       -0.76646        3.56044
H          2.91389       -3.53315        1.97804
