17

C          1.77503        0.13016       -0.36901
C          3.14211       -0.20912        0.15512
C          3.31105       -1.60346        0.73754
O          4.37035       -2.39187        0.14444
C          5.51450       -1.71290       -0.17771
C          5.56861       -0.39833       -0.42611
C          4.37940        0.43748       -0.43974
N          3.86900        0.89850        0.83495
H          1.31647       -0.73038       -0.86603
H          1.80675        0.95109       -1.09304
H          1.12085        0.43235        0.45683
H          2.39200       -2.18569        0.60633
H          3.49772       -1.54908        1.81737
H          6.36713       -2.37601       -0.23943
H          6.52093        0.06212       -0.66391
H          4.26843        1.09883       -1.29168
H          3.37616        1.78409        0.72078
