13

C          1.08342       -0.00185        0.06721
C          2.41524       -0.09519        0.07188
N          3.20476        1.02001        0.07491
C          4.57030        1.00487        0.08017
O          5.24722        2.02601        0.08275
C          5.19862       -0.32643        0.08271
C          4.39930       -1.39492        0.07936
O          3.02677       -1.33968        0.07383
H          0.56971        0.95225        0.06566
H          0.47253       -0.89867        0.06489
H          2.78287        1.93850        0.07335
H          6.27728       -0.38205        0.08715
H          4.74941       -2.41726        0.08071
