19

C          1.67911       -0.23892       -1.05498
C          2.35690       -0.87917       -0.13567
C          3.01470       -1.41368        0.69375
O          3.47767        0.11303        0.76532
C          4.73090        0.13729        1.14599
C          5.38397        1.52197        1.28129
N          6.41087        0.89156        2.17146
C          5.37003       -0.14324        2.51823
H          1.18589       -1.07878       -1.35922
H          2.27022        0.21728       -1.87839
H          0.99332        0.54979       -0.69918
H          2.21108       -2.02654        0.01924
H          3.71849       -1.94949        1.56538
H          4.98671       -0.51294        0.35313
H          4.75178        2.28397        1.75502
H          5.66759        2.08584        0.37488
H          6.71967        1.47862        2.95992
H          4.75168        0.09181        3.38641
H          5.66792       -1.17270        2.79928
