15

C          0.98664       -0.01179       -0.06526
C          2.51880       -0.07582       -0.06520
C          3.03322       -1.49327       -0.27272
C          2.78077       -2.26859       -1.33887
C          3.09266        0.82654       -1.15205
O          2.53712        1.06088       -2.22431
C          3.02546        0.44620        1.26942
N          3.44578        0.87926        2.37659
H          0.56040       -0.37462       -1.00771
H          0.63488        1.01886        0.06776
H          0.55996       -0.61176        0.74763
H          3.64536       -1.92324        0.52163
H          2.17856       -1.92380       -2.17633
H          3.17923       -3.27800       -1.40086
H          4.10471        1.22863       -0.96233
