21

C          1.17593        0.18230       -0.06828
C          2.66369        0.17102       -0.16882
C          3.33231       -0.60708       -1.26110
C          3.44924        0.91049       -1.25929
C          2.64753        1.67724       -2.29040
N          4.73246        1.50287       -0.76650
C          5.84718        1.07113       -1.61796
C          5.37868        2.49318       -1.61572
H          0.85217       -0.48713        0.73540
H          0.68947       -0.15576       -0.98871
H          0.81651        1.18887        0.16561
H          3.11283        0.14928        0.82046
H          2.72136       -1.07187       -2.02675
H          4.19818       -1.19965       -0.98607
H          1.68457        1.20621       -2.51007
H          3.18501        1.72705       -3.24278
H          2.44540        2.69521       -1.94013
H          5.63987        0.47076       -2.49505
H          6.76336        0.82960       -1.09475
H          4.89246        2.87669       -2.50047
H          5.99075        3.22308       -1.09819
