19

C          1.41341        0.21366       -0.50896
C          2.79391       -0.03629        0.00956
C          3.12597       -1.43608        0.46582
C          4.35100       -1.83231       -0.37695
N          5.07143       -0.57533       -0.65160
C          4.01830        0.46717       -0.71482
C          3.56244        1.15718        0.53959
O          4.37984        0.94581        1.70202
H          0.98213       -0.68588       -0.95881
H          1.40063        1.00403       -1.26698
H          0.76204        0.52519        0.31455
H          2.30691       -2.14364        0.29787
H          3.36798       -1.44847        1.53314
H          4.01607       -2.26287       -1.32914
H          4.98471       -2.56736        0.12791
H          5.58381       -0.65650       -1.53021
H          3.89636        0.98227       -1.66118
H          3.11542        2.14121        0.42522
H          5.13102        0.36994        1.45794
