21

C          1.16946        0.12589       -0.06632
C          2.65954       -0.11962        0.10204
C          3.05161       -1.57306       -0.18084
C          4.53892       -1.47269       -0.49490
C          4.60268       -0.25287       -1.41059
C          5.55533        0.91542       -1.10840
N          4.51013        1.52693       -0.27221
C          3.47880        0.68303       -0.91312
H          0.59119       -0.50872        0.61267
H          0.84045       -0.07985       -1.09066
H          0.92713        1.17129        0.15309
H          2.94639        0.13246        1.13171
H          2.51343       -1.95802       -1.05657
H          2.84598       -2.23431        0.66554
H          4.91579       -2.37433       -0.98532
H          5.11273       -1.31557        0.42549
H          4.52582       -0.51984       -2.47082
H          5.81149        1.51241       -1.99215
H          6.47630        0.65878       -0.57842
H          4.38780        2.52945       -0.41109
H          2.92961        1.18073       -1.72056
