19

C          1.00390        0.13365        0.18258
C          2.52285        0.10381        0.06467
C          3.04616       -0.86018       -1.02382
C          2.51583       -0.46249       -2.41100
C          4.59901       -0.91870       -0.99668
O          5.05038       -1.36156        0.28770
C          5.10898       -1.84864       -2.08550
N          5.53204       -2.62010       -2.98878
H          0.70644        0.74634        1.03880
H          0.60118       -0.87356        0.32934
H          0.53708        0.56986       -0.70566
H          2.92728       -0.18984        1.04079
H          2.88488        1.12076       -0.13415
H          2.66168       -1.86222       -0.78859
H          2.84072        0.54714       -2.68278
H          1.42298       -0.49148       -2.44458
H          2.85859       -1.15042       -3.19061
H          5.01689        0.08039       -1.16431
H          4.78743       -2.29470        0.38817
