18

C          0.89039        0.25451        0.09358
C          2.40059        0.10127        0.10583
C          3.09286        1.21632        0.85510
C          4.39607        0.54235        1.21843
O          4.07241       -0.83113        1.49211
N          2.83567       -1.06716        0.85187
C          2.67424       -2.35651        0.42552
N          3.40274       -3.36960        0.75073
H          0.60266        1.22188       -0.33154
H          0.46762        0.18215        1.10151
H          0.42454       -0.52843       -0.51444
H          2.78067        0.04859       -0.92208
H          2.54437        1.47143        1.77178
H          3.22934        2.12943        0.26829
H          4.85914        0.98819        2.10270
H          5.11301        0.56800        0.38982
H          1.81705       -2.49623       -0.25338
H          4.12483       -2.99361        1.38029
