16

C          1.05710        0.09379       -0.06084
C          2.57902       -0.05535       -0.05876
C          3.08568       -0.19056        1.36792
N          3.50601       -0.30272        2.55146
N          3.02458       -1.15225       -0.92959
C          2.67262       -2.52758       -0.62891
C          3.92146       -0.88784       -1.94500
O          4.35569        0.21739       -2.24160
H          0.75325        0.97111        0.52185
H          0.55685       -0.77558        0.37897
H          0.67975        0.21694       -1.08150
H          2.99019        0.88672       -0.44137
H          1.92503       -2.58891        0.16452
H          3.57657       -3.06570       -0.32892
H          2.27803       -2.99343       -1.53755
H          4.21314       -1.79468       -2.50351
