18

C          3.24229       -1.12625        0.38908
C          2.34035        0.04593        0.02572
C          3.07413        1.37648        0.09199
C          2.20612        2.57635       -0.28822
O          2.72470        3.66439        0.50357
C          3.41913        3.10434        1.52774
N          4.01086        3.83907        2.38702
N          3.43362        1.75563        1.43585
H          2.70540       -2.07119        0.25880
H          3.56858       -1.06676        1.43211
H          4.13158       -1.15061       -0.24880
H          1.47279        0.04714        0.69694
H          1.96009       -0.10629       -0.99157
H          3.97619        1.35915       -0.53343
H          1.14921        2.44359       -0.03106
H          2.28831        2.82060       -1.35192
H          3.79674        4.80901        2.13222
H          4.22793        1.31718        1.88621
