19

C          0.74168       -0.21345        0.05405
C          2.18555        0.12600        0.17174
C          3.25824       -0.69490       -0.47675
O          2.90758       -1.60928       -1.54628
C          2.92563       -0.85754       -2.77077
C          2.54601        0.57423       -2.39669
C          3.00180        0.70977       -0.96751
N          3.91667        1.80723       -0.63433
H          0.46563       -0.93898        0.82561
H          0.47016       -0.64007       -0.91525
H          0.13781        0.68678        0.20945
H          2.40240        0.48902        1.17277
H          4.16287       -0.89310        0.08507
H          2.23493       -1.29885       -3.49498
H          3.94282       -0.90247       -3.17567
H          1.46389        0.72197       -2.47394
H          3.02198        1.28905       -3.07689
H          3.44872        2.70719       -0.74477
H          4.71977        1.82033       -1.26061
