16

C          1.05528        0.08977       -0.08333
N          2.50929        0.03076       -0.01085
C          3.12223       -0.65455       -1.13928
C          3.26954        0.85236       -0.98674
C          2.59906        1.74208       -2.00988
O          3.14597        1.50838       -3.30869
C          4.56736        1.33597       -0.56847
N          5.61320        1.74780       -0.27543
H          0.63952       -0.53681        0.71262
H          0.62927       -0.27259       -1.02622
H          0.69799        1.10940        0.09440
H          2.50064       -1.03028       -1.94440
H          3.96754       -1.29053       -0.90062
H          2.72363        2.80291       -1.76174
H          1.52449        1.56298       -2.09470
H          3.98995        1.99180       -3.36613
