18

C          0.93774        0.15448       -0.18883
C          2.38286       -0.01054        0.22043
C          2.58850       -0.27577        1.69400
O          2.08452        0.81910        2.45354
C          3.32829       -0.63454       -0.77591
N          3.46992        0.77513       -0.41430
N          2.96492        1.50353       -1.42554
C          3.58058        2.63272       -1.54180
H          0.30378       -0.55162        0.35912
H          0.77933       -0.03508       -1.25554
H          0.58616        1.16626        0.03837
H          3.64861       -0.39899        1.94619
H          2.06288       -1.18428        2.00410
H          2.39094        1.62224        1.99462
H          2.97430       -0.87228       -1.77293
H          4.10872       -1.29231       -0.41426
H          3.27292        3.34310       -2.32668
H          4.41418        2.94647       -0.88925
