18

C          1.63836       -1.09632       -0.38384
C          2.54464        0.04816        0.03434
C          3.15073        0.75962       -1.13587
N          2.32806        1.48637       -2.09854
C          3.14646        2.26936       -1.16514
C          4.27642        2.99238       -1.77412
N          5.29366        3.24280       -1.01803
O          6.24781        3.94729       -1.76009
H          1.26745       -1.62726        0.49914
H          2.16971       -1.81171       -1.01901
H          0.77158       -0.72741       -0.94224
H          3.35628       -0.34679        0.65812
H          1.97649        0.74221        0.66550
H          4.00287        0.23206       -1.55161
H          1.34688        1.49326       -1.81156
H          2.59993        2.81401       -0.40467
H          4.20743        3.30528       -2.83151
H          6.96311        4.07714       -1.10974
