20

C          0.96675        0.05722        0.20808
C          2.48331       -0.03162        0.12201
O          3.00329        0.12986        1.44126
C          3.05427       -1.34142       -0.51342
N          2.25780       -2.31349       -0.85274
N          4.42432       -1.48103       -0.69846
C          5.41598       -0.50841       -0.25808
C          4.99815       -2.73850       -1.17184
H          0.66548        1.01490        0.64696
H          0.56140       -0.72367        0.86206
H          0.49958       -0.03340       -0.77771
H          2.83985        0.80794       -0.48479
H          2.84709       -0.71507        1.89945
H          1.27601       -2.09903       -0.68125
H          5.00105        0.47802       -0.04406
H          6.16811       -0.36181       -1.04140
H          5.92520       -0.86844        0.64224
H          4.25059       -3.46157       -1.51146
H          5.57907       -3.21266       -0.37305
H          5.66722       -2.54749       -2.01765
