19

C          0.82604        0.43466        1.49492
O          1.53290       -0.08815        0.34352
C          0.68236        0.12434       -0.80241
C         -0.16554        1.32729       -0.43089
C         -0.53981        0.91786        0.97886
N         -1.56701       -0.14679        0.91035
C         -1.06431       -1.36809        0.26360
C         -0.21670       -1.10201       -0.98457
H          1.41587        1.27037        1.88800
H          0.76088       -0.33470        2.27025
H          1.29770        0.29899       -1.68928
H          0.44194        2.24070       -0.41070
H         -1.01734        1.49186       -1.09784
H         -0.92843        1.74589        1.57796
H         -2.36888        0.20309        0.38624
H         -1.91372       -2.00895        0.00138
H         -0.47931       -1.94036        0.99367
H         -0.87003       -0.95001       -1.85195
H          0.39940       -1.98675       -1.18098
