19

C          0.93865        0.02631       -0.02504
N          2.39306        0.05967       -0.02669
C          3.06512        0.48475       -1.26188
C          3.44753       -0.69107       -2.16466
O          2.28362       -1.37468       -2.62687
C          3.17909       -0.32647        1.04805
C          2.50219       -0.70714        2.34376
O          4.40985       -0.35890        0.97636
H          0.53711        0.30386       -1.00325
H          0.56909        0.72960        0.72662
H          0.60201       -0.98473        0.22216
H          3.97503        1.03494       -0.99614
H          2.40609        1.18020       -1.79220
H          4.08925       -1.41215       -1.64882
H          3.98491       -0.32329       -3.04413
H          1.92273       -1.83887       -1.85143
H          1.41402       -0.69843        2.30130
H          2.81606       -0.00339        3.12044
H          2.82011       -1.71655        2.62061
