16

C          1.05106       -0.01470        0.13227
C          2.55293        0.09376       -0.07684
O          2.78354        1.23554       -0.91716
N          4.08154        1.12789       -1.42544
C          4.21188       -0.04236       -2.14258
C          5.02619       -0.00778       -3.41274
N          3.69266       -1.18337       -1.80759
O          3.00553       -1.18157       -0.56801
H          0.64720        0.90218        0.57222
H          0.80051       -0.86703        0.77181
H          0.54458       -0.16606       -0.82803
H          3.04470        0.27113        0.88689
H          4.36020        1.97171       -1.91887
H          5.21994        1.01987       -3.73033
H          4.48495       -0.52808       -4.20836
H          5.98001       -0.51591       -3.24021
