19

C          0.90682       -0.05957        0.03711
C          2.44048       -0.01411        0.11266
O          2.82408        1.36538       -0.02736
C          2.94622       -0.54102        1.48421
N          2.48982        0.28465        2.61493
C          3.02374       -0.82885       -1.06592
C          4.54360       -0.84589       -1.05409
C          5.84733       -0.86050       -1.04394
H          0.44723        0.57117        0.80631
H          0.52846       -1.08016        0.15290
H          0.55665        0.33447       -0.92399
H          2.41590        1.82610        0.72801
H          4.04093       -0.54339        1.52214
H          2.60744       -1.57241        1.63345
H          3.05924        1.13198        2.64102
H          2.72118       -0.20460        3.48132
H          2.70729       -0.38918       -2.01974
H          2.66370       -1.86383       -1.03281
H          6.91287       -0.86376       -1.04051
