20

C          0.84191       -0.13863       -0.01264
C          2.35950       -0.11040        0.03243
C          3.12847        0.99402        0.81975
N          2.38022        1.43318        2.00365
C          4.17145       -0.10422        1.21996
O          5.36169       -0.17083        0.38738
C          3.05371       -1.16214        0.94075
N          3.57161       -2.25701        0.12309
H          0.45818        0.73687       -0.54602
H          0.39696       -0.15357        0.98698
H          0.49423       -1.03133       -0.54271
H          2.72252       -0.13694       -1.00954
H          3.51545        1.81804        0.21433
H          2.04136        0.69581        2.62102
H          1.57628        2.02230        1.79339
H          4.48415       -0.08140        2.27031
H          5.06825        0.09996       -0.49784
H          2.48441       -1.48109        1.82024
H          4.45617       -2.06054       -0.34606
H          2.92476       -2.65451       -0.55242
