19

C          1.00574       -0.01244        0.12267
C          2.52604       -0.02752        0.09547
C          3.05392       -1.04203       -0.91851
C          4.58605       -1.05279       -0.95649
C          5.12550       -2.07523       -1.96101
O          4.65085       -1.75929       -3.27475
C          6.64523       -2.09543       -1.94081
N          7.90597       -2.11219       -1.92406
H          0.64630        0.72024        0.85203
H          0.60875       -0.99363        0.40215
H          0.59857        0.25601       -0.85735
H          2.90242       -0.26921        1.09591
H          2.89093        0.97519       -0.15627
H          2.65744       -0.79882       -1.91141
H          2.68755       -2.04340       -0.66096
H          4.97787       -1.27334        0.04438
H          4.93782       -0.04844       -1.22643
H          4.75964       -3.07757       -1.71295
H          5.07106       -0.92436       -3.54790
