15

C          1.04581        0.01518        0.08823
N          2.50175       -0.00812        0.01828
C          3.08853        1.09504        0.80699
C          4.05657        0.02951        1.36129
O          5.10148        0.06627        1.97707
C          3.05777       -1.06230        0.89899
C          3.62658       -2.13660        0.12259
C          4.07956       -3.05246       -0.50900
H          0.65935        0.86887       -0.47931
H          0.65959        0.08363        1.11215
H          0.63233       -0.88985       -0.37029
H          2.45965        1.53510        1.58885
H          3.56024        1.88208        0.21523
H          2.41130       -1.39415        1.72098
H          4.47738       -3.86919       -1.06551
