18

C          1.38269       -0.08805        0.32629
C          2.73707        0.06683       -0.27962
N          3.40092       -1.15179       -0.75193
C          3.99244       -0.44596        0.38608
C          5.18654        0.42862        0.20783
N          4.62640        1.62927       -0.39862
C          3.73500        2.38221        0.48163
C          3.25057        1.40955       -0.57662
H          1.23408       -1.08198        0.76197
H          0.61692        0.05664       -0.44442
H          1.21461        0.65435        1.11234
H          3.90969       -0.94629       -1.61351
H          3.92775       -0.92049        1.35522
H          5.91175       -0.03336       -0.47250
H          5.69308        0.64344        1.15401
H          3.64580        3.44167        0.27659
H          3.68607        2.10645        1.52642
H          2.80630        1.87564       -1.45374
