17

C          0.98320        0.06461       -0.06758
N          2.42958        0.03926       -0.06353
C          3.22894        1.15621       -0.05744
C          4.54344        0.74255       -0.05241
C          4.51868       -0.66364       -0.05656
O          5.56579       -1.49906       -0.05370
C          3.21301       -1.09507       -0.06445
C          2.65555       -2.47248       -0.07248
H          0.63506        1.10070       -0.06799
H          0.62616       -0.44439        0.83117
H          0.63071       -0.44363       -0.96850
H          2.80300        2.15091       -0.05672
H          5.40736        1.39214       -0.04659
H          6.39120       -0.98706       -0.04674
H          3.45162       -3.22379       -0.07028
H          2.04467       -2.63624       -0.96594
H          2.03370       -2.64251        0.81216
