19

C          0.86595        0.14789        0.14812
C          2.37489        0.02476       -0.01111
C          3.03661       -0.36833        1.31619
C          4.56756       -0.53824        1.22998
C          5.16595       -0.74260        2.63447
O          5.14996        0.63243        0.65721
C          4.91096       -1.76815        0.40547
N          5.19584       -2.78845       -0.27853
H          0.40724        0.43841       -0.80212
H          0.60876        0.90587        0.89570
H          0.42705       -0.80533        0.46049
H          2.77130        0.98542       -0.35894
H          2.59177       -0.71817       -0.78463
H          2.57840       -1.29110        1.69584
H          2.80660        0.42431        2.04101
H          6.05411       -0.12076        2.79117
H          5.44520       -1.78428        2.83012
H          4.44950       -0.46565        3.42213
H          4.92192        1.38920        1.22261
