16

C          0.98337       -0.00326       -0.06126
N          2.43595        0.03482        0.00276
C          2.96452       -0.07478        1.16189
O          4.33407       -0.03345        1.32151
N          4.59463       -0.08137        2.69910
C          3.40598       -0.30678        3.34626
C          3.34053       -0.57172        4.80826
C          2.37408       -0.27820        2.50160
H          0.66768        0.12929       -1.10080
H          0.53468        0.80884        0.52104
H          0.58943       -0.96593        0.28138
H          5.34708       -0.72220        2.94641
H          4.34102       -0.69987        5.23429
H          2.77337       -1.48554        5.01231
H          2.85929        0.26364        5.32669
H          1.33082       -0.42228        2.70753
