16

C          0.88128        0.01540        0.06681
C          2.39780       -0.04584       -0.05749
N          3.07152        0.99090        0.78766
C          4.05623       -0.01484        1.24190
C          3.09297       -1.14019        0.81139
O          3.66171       -2.30487        0.17037
C          2.83227        0.02546       -1.44900
N          3.19816        0.05131       -2.55095
H          0.55788        0.00848        1.11431
H          0.41492       -0.84794       -0.42190
H          0.47667        0.92295       -0.39660
H          2.48850        1.35010        1.54469
H          4.28228        0.02407        2.31169
H          5.00104        0.01733        0.68728
H          2.46410       -1.47230        1.64901
H          4.28334       -1.97404       -0.50445
