15

C          1.01607        0.05860       -0.00660
C          2.49218        0.08583       -0.01248
C          3.34554        1.16437       -0.04846
O          4.62472        0.69865       -0.03427
C          4.47896       -0.66032        0.00287
C          5.72068       -1.47727        0.02433
O          5.45395       -2.73273       -0.60623
N          3.22596       -1.07844        0.02021
H          0.59908        1.07061       -0.00050
H          0.64875       -0.46642        0.88055
H          0.64185       -0.45981       -0.89453
H          3.22307        2.23695       -0.08348
H          6.03397       -1.66763        1.05450
H          6.53507       -0.98661       -0.51513
H          4.50157       -2.90622       -0.46893
