21

C          0.98391       -0.41929        0.05762
C          2.45236        0.02914       -0.18532
C          3.79953        0.21627       -0.93274
O          1.87376        0.46597       -1.55704
C          2.62795        1.01871        0.96609
C          2.15715        0.58509        2.44144
N          3.23966        1.41551        2.98813
C          4.00316        1.19550        1.76709
H          0.55318       -1.09135       -0.68839
H          0.36500        0.51039        0.05059
H          0.79873       -0.86993        1.02340
H          3.98594       -0.43864       -1.78311
H          4.69335        0.15369       -0.30711
H          3.84420        1.27007       -1.31883
H          1.85199       -0.33319       -2.19339
H          2.21320        2.01491        0.70325
H          2.30555       -0.48248        2.65241
H          1.15012        0.87223        2.73080
H          3.65968        1.06369        3.85564
H          4.60616        0.27333        1.83041
H          4.64130        2.01505        1.45641
