21

C          1.02147       -0.06217        0.01122
C          2.56465       -0.05772       -0.00401
C          3.07397        1.33149        0.43677
C          2.59047        2.42673       -0.47751
O          3.21844        2.81340       -1.45845
N          3.09648       -1.14741        0.86672
C          2.65062       -2.47768        0.42628
C          4.56491       -1.15681        0.92406
H          0.60722        0.75913       -0.58128
H          0.63482        0.03296        1.03206
H          0.61019       -0.97535       -0.42935
H          2.88826       -0.22999       -1.03998
H          4.16695        1.38835        0.40986
H          2.75725        1.57262        1.45771
H          1.59595        2.84407       -0.24495
H          1.57081       -2.60231        0.54762
H          3.09933       -3.26277        1.04682
H          2.91737       -2.67495       -0.61821
H          4.95108       -0.27568        1.44466
H          5.01521       -1.21092       -0.07340
H          4.92609       -2.01153        1.50868
