18

C          0.72229        1.30729       -0.30258
C         -0.71535        0.96477       -0.56680
C         -0.72128       -0.45817       -1.03615
N          0.67769       -0.97660       -1.01127
C          1.31048       -0.08902        0.01251
C          0.79007       -0.53570        1.41290
N         -0.68579       -0.44035        1.56705
C         -1.36339       -0.08791        0.29268
H          0.83133        2.00930        0.52970
H          1.18159        1.73560       -1.20043
H         -1.30534        1.70923       -1.07336
H         -1.36203       -0.75973       -1.85462
H          1.11602       -0.79162       -1.91290
H          2.40260       -0.11750       -0.03502
H          1.26116        0.08344        2.18553
H          1.08997       -1.57239        1.60613
H         -0.90237        0.25152        2.28242
H         -2.44833       -0.10870        0.33186
