17

C          2.71829       -1.20226       -0.51387
C          2.40832       -0.01983        0.03545
C          3.16193        0.66426        1.08730
N          4.54009        1.03853        0.80833
C          3.55115        2.11852        0.89718
C          3.65461        3.09848        2.05459
C          4.85642        3.98349        2.27750
O          3.66156        4.48659        1.67391
H          2.09418       -1.64188       -1.28491
H          3.59999       -1.75322       -0.19998
H          1.50470        0.47989       -0.31024
H          2.96312        0.32257        2.09801
H          4.77221        0.85244       -0.16838
H          3.29371        2.57376       -0.05802
H          3.07367        2.84767        2.93750
H          5.72270        3.83715        1.64446
H          5.08079        4.29470        3.28936
