18

C          1.03773        0.02937        0.02526
N          2.47932        0.02556        0.02851
C          3.17670       -0.43216        1.11808
O          2.56716       -0.84723        2.10697
N          4.57735       -0.39983        1.03982
C          5.34213        0.08421       -0.11415
C          5.29387       -0.86504        2.14750
C          6.62527       -0.91816        2.27386
H          0.69064        0.43140       -0.92950
H          0.67406        0.65360        0.84608
H          0.67143       -0.99284        0.15384
H          2.93906        0.37313       -0.79078
H          4.73267        0.43236       -0.94491
H          5.97020       -0.73005       -0.49119
H          5.96990        0.92402        0.20250
H          4.68675       -1.21582        2.98321
H          7.31689       -0.59580        1.50612
H          7.06193       -1.30318        3.19079
