21

C          0.95867       -0.06942        0.04678
C          2.47929       -0.07664        0.06829
C          3.01665       -0.39160        1.46386
C          4.54553       -0.40153        1.48700
C          5.07351       -0.71178        2.88586
N          6.52060       -0.70912        2.92209
C          7.25719       -1.83076        2.64191
O          6.80803       -2.93230        2.36321
H          0.59434        0.15765       -0.95997
H          0.56048        0.68709        0.73052
H          0.55738       -1.04432        0.34149
H          2.84811        0.90152       -0.26133
H          2.84530       -0.82042       -0.64908
H          2.63866       -1.36846        1.79060
H          2.64360        0.35356        2.17722
H          4.92932        0.57230        1.15761
H          4.92271       -1.14447        0.77319
H          4.70921       -1.68878        3.22259
H          4.73365        0.04463        3.60103
H          7.00642        0.16324        3.08400
H          8.34061       -1.63180        2.69594
