18

C          2.10777        0.29476        1.26263
N          2.39200       -0.07308       -0.11147
C          1.90151        0.69335       -1.15300
O          1.16678        1.66732       -1.05444
C          3.32661       -1.14190       -0.34438
C          3.05322       -2.55005        0.11543
C          3.04524       -2.23995       -1.34850
N          4.11649       -2.74546       -2.20418
H          1.43626        1.15562        1.31714
H          3.04821        0.54806        1.76096
H          1.63994       -0.55255        1.77111
H          2.24495        0.33241       -2.13755
H          4.35632       -0.80220       -0.25413
H          2.09871       -2.77347        0.57838
H          3.87770       -3.12595        0.51862
H          2.06437       -2.25139       -1.82041
H          5.03040       -2.67564       -1.75820
H          4.18116       -2.20646       -3.06774
