15

C          0.95686        0.06922       -0.10726
C          2.45946        0.01289       -0.03081
N          3.10091       -0.70854        0.95578
C          2.58675       -1.45512        1.97810
O          3.28290       -2.05059        2.79159
C          3.16649        0.68952       -0.95642
C          4.64770        0.74138       -1.02754
O          5.38222        0.16311       -0.23715
H          0.43973       -0.49772        0.66635
H          0.61524       -0.32624       -1.07090
H          0.61545        1.10714       -0.02105
H          4.12581       -0.70137        0.94501
H          1.49214       -1.49291        2.03188
H          2.66287        1.25751       -1.73255
H          5.04414        1.34897       -1.85818
