19

C         -1.48788        1.06030       -1.05373
N         -1.76818       -0.18005       -0.30270
C         -0.68997       -0.30479        0.70258
C         -0.49919        1.14829        1.09837
C         -0.35991        1.76063       -0.28719
C          1.01098        1.33592       -0.83272
O          1.08104       -0.07844       -1.04143
C          0.62056       -0.84912        0.08004
H         -2.39322        1.67565       -1.05754
H         -1.21966        0.84536       -2.09468
H         -1.74312       -0.97456       -0.94148
H         -1.00498       -0.92555        1.54343
H          0.37837        1.30967        1.73280
H         -1.37868        1.54526        1.62180
H         -0.46040        2.84761       -0.27314
H          1.81891        1.63595       -0.15584
H          1.19677        1.81751       -1.79801
H          1.41923       -0.87632        0.83000
H          0.46590       -1.87233       -0.27918
