17

C          0.89761       -0.41010        0.13440
C          2.35916       -0.13695        0.25241
C          2.80869        1.26150        0.19245
N          2.55596        2.47696       -0.57330
C          3.60221        2.67961       -1.47015
N          4.53197        1.84040       -1.85402
N          4.54664        0.57176       -1.26751
C          3.16153        0.20745       -0.94027
H          0.41320       -0.29586        1.10956
H          0.72890       -1.43319       -0.21456
H          0.40717        0.27378       -0.56684
H          2.82146       -0.79048        0.98402
H          3.55702        1.47232        0.96210
H          2.21364        3.30519       -0.09924
H          3.57929        3.69188       -1.90554
H          4.98836       -0.09110       -1.90655
H          2.55612        0.14520       -1.84745
