17

C          1.52224       -0.79916        0.92357
C          2.56771       -0.03188        0.14729
N          2.85679        1.22616        0.32245
O          2.08027        1.81181        1.32537
C          3.37228       -0.79546       -0.96258
C          4.89714       -0.90475       -0.80396
C          4.68551       -2.37382       -1.15131
O          3.26053       -2.25555       -0.91092
H          0.98070       -0.18427        1.64381
H          2.00921       -1.61643        1.46260
H          0.80035       -1.21933        0.21748
H          2.38594        2.73757        1.31749
H          3.07327       -0.45183       -1.96259
H          5.27227       -0.73280        0.20923
H          5.48737       -0.33213       -1.52271
H          5.16012       -3.09005       -0.47628
H          4.88702       -2.64734       -2.19187
