16

C          1.13975       -0.03228        0.02238
C          2.65096        0.00363        0.05242
N          3.21647        1.14449       -0.08579
C          4.67528        1.26478       -0.04974
C          5.44169       -0.02234        0.13502
O          6.66567       -0.01051        0.30818
C          4.70785       -1.32576       -0.03427
N          3.29453       -1.18698        0.22055
H          0.72650        0.98104        0.01406
H          0.76845       -0.55999        0.90621
H          0.80637       -0.56152       -0.87361
H          4.94451        1.93126        0.77635
H          5.00730        1.72056       -0.98768
H          5.12242       -2.04745        0.67674
H          4.87244       -1.69125       -1.05194
H          2.74652       -2.03533        0.12163
