19

C          0.87807        0.00359        0.04010
C          2.40107        0.04036       -0.02048
C          2.96745       -1.30682       -0.45604
C          2.83242        1.15135       -0.94488
N          3.01291        1.00538       -2.21885
O          3.39636        2.27346       -2.72083
C          3.00194        3.24896       -1.75144
C          3.06998        2.52640       -0.43432
H          0.53306       -0.77310        0.73024
H          0.44457       -0.19730       -0.94592
H          0.47731        0.96327        0.38453
H          2.78997        0.27138        0.97879
H          2.59684       -1.60142       -1.44412
H          2.69043       -2.09230        0.25489
H          4.06094       -1.26936       -0.51007
H          1.98333        3.57717       -1.98611
H          3.67310        4.11106       -1.79245
H          2.31543        2.86000        0.27928
H          4.06671        2.56811        0.01385
