23

C          0.97087       -0.12557        0.12343
C          2.48649       -0.05494        0.06517
C          2.96770        1.28125       -0.48515
O          4.39495        1.28226       -0.49752
C          4.90871        2.51452       -1.02096
C          6.45093        2.49239       -1.04398
C          7.03051        2.27239        0.35328
N          6.93806        1.44389       -1.95275
H          0.64956       -1.09367        0.51899
H          0.53353       -0.00386       -0.87338
H          0.56656        0.65812        0.77395
H          2.87336       -0.87044       -0.55777
H          2.90531       -0.21446        1.06599
H          2.60845        2.10137        0.14695
H          2.59230        1.42594       -1.50485
H          4.56375        3.34291       -0.39080
H          4.52319        2.66689       -2.03655
H          6.80437        3.45753       -1.42350
H          6.72907        1.30737        0.77515
H          6.69353        3.05924        1.03646
H          8.12579        2.30066        0.33117
H          6.50954        0.56149       -1.66160
H          7.94239        1.32401       -1.83409
