12

C          1.14361       -0.08456       -0.14830
C          2.34403       -0.07514       -0.16052
C          3.78417       -0.06902       -0.12848
N          4.25656        1.11440        0.06778
O          5.67551        1.16693        0.18635
C          6.37260       -0.06781       -0.05333
O          5.67849       -1.24701        0.38344
N          4.44182       -1.25939       -0.27655
H          0.07799       -0.07358       -0.11509
H          7.31040       -0.01825        0.50847
H          6.62141       -0.14887       -1.11865
H          3.88865       -2.08511       -0.06613
