16

C          3.31892        0.78209        0.95798
C          2.52525       -0.07753       -0.00261
N          1.22870       -0.02541        0.02633
N          3.19822       -0.92491       -0.89571
C          2.42659       -1.74804       -1.73037
C          2.84438       -2.58956       -2.68544
C          4.59293       -0.99663       -0.92329
O          5.40994       -0.21848       -0.43959
H          2.65376        1.33293        1.63007
H          3.91011        1.51485        0.40210
H          3.96967        0.15570        1.57396
H          0.90515        0.63659        0.73992
H          1.34863       -1.66358       -1.58887
H          3.87664       -2.75732       -2.96190
H          2.10775       -3.14824       -3.25851
H          4.97025       -1.86424       -1.48075
