15

C          1.18553       -0.15418        0.03442
C          2.67357        0.06935        0.02105
C          3.18255        1.31343        0.00516
C          3.52072       -1.13865        0.04864
O          3.14027       -2.39518       -0.53545
C          4.09608       -1.61655       -1.26818
C          5.42822       -2.13578       -1.27840
N          6.52438       -2.51602       -1.28852
H          0.62917        0.78791        0.09331
H          0.89887       -0.76335        0.89730
H          0.87001       -0.66992       -0.87821
H          2.54314        2.19236       -0.00590
H          4.25442        1.48740        0.00970
H          4.14157       -1.20804        0.93853
H          3.74713       -1.16626       -2.18907
