19

C         -1.63616        0.05109        0.78096
N         -1.50495       -1.36977        0.36743
C         -0.33611       -0.98702       -0.47948
C          1.00272       -1.14203        0.25164
O          1.87916       -0.06194       -0.09563
C          1.33592        1.19592        0.31460
C          0.13832        1.54849       -0.55613
C         -0.91043        0.44886       -0.52269
H         -1.10970        0.28343        1.71294
H         -2.66800        0.40451        0.87262
H         -2.29976       -1.69354       -0.18670
H         -0.31237       -1.47401       -1.46149
H          1.48567       -2.07870       -0.04700
H          0.89466       -1.16818        1.34263
H          2.11764        1.95125        0.18445
H          1.08167        1.16730        1.37992
H          0.48287        1.66353       -1.59177
H         -0.29456        2.50541       -0.24666
H         -1.62848        0.59131       -1.34474
