16

C          1.03495        0.10034       -0.01462
C          2.53524        0.06315        0.13920
N          3.17313        1.19042        0.23641
N          4.49567        1.13392        0.49522
C          5.34217        0.07086       -0.03753
C          4.67949       -1.25632        0.23743
O          5.33366       -2.29238        0.37525
C          3.18492       -1.29178        0.18699
H          0.67363        1.13165       -0.05200
H          0.57789       -0.40445        0.84167
H          0.74551       -0.41728       -0.93210
H          4.92950        2.04572        0.32946
H          6.30785        0.09234        0.47736
H          5.49661        0.18468       -1.11384
H          2.81345       -1.82294        1.06793
H          2.88925       -1.83705       -0.71649
