21

C          0.96609       -0.04214        0.05228
C          2.45597       -0.04922        0.01047
C          3.23538       -1.13828       -0.06969
C          4.68532       -0.78762       -0.03385
C          4.66952        0.71409       -0.32182
C          3.27458        1.21147        0.11696
C          3.29895        1.74665        1.55340
N          2.79571        2.26180       -0.77457
H          0.56042       -1.05855        0.00997
H          0.55602        0.51251       -0.79722
H          0.60744        0.41985        0.97704
H          2.87244       -2.15618       -0.11670
H          5.25456       -1.32856       -0.79535
H          5.10724       -1.00866        0.95180
H          4.82058        0.86168       -1.40103
H          5.49117        1.23496        0.18275
H          3.65399        0.98818        2.26107
H          2.30187        2.06162        1.88338
H          3.96552        2.61287        1.64169
H          2.79044        1.90708       -1.73015
H          3.45542        3.03738       -0.76837
