15

C          0.95729       -0.00846        0.14235
N          2.41355       -0.02240        0.05155
C          3.08418       -0.19898       -1.14938
C          2.54004       -0.32288       -2.36422
C          3.06024        0.13224        1.29487
O          2.49023        0.30630        2.36789
C          4.57406        0.13021        1.30402
O          5.21727       -0.79551        1.77342
H          0.45119       -0.12826       -0.81508
H          0.63934        0.94117        0.58666
H          0.63863       -0.82156        0.80528
H          4.17054       -0.23846       -1.09968
H          1.47736       -0.30106       -2.56955
H          3.18318       -0.44899       -3.23177
H          5.02506        1.02482        0.84872
