17

C          1.11267        0.12945       -0.10431
C          2.59402       -0.03042        0.00525
C          3.23787       -0.98950        0.69251
C          2.56143       -2.05472        1.50665
O          4.66084       -0.91028        0.73376
C          5.41195       -2.03161        0.78666
N          6.69844       -1.95114        0.84074
O          7.23796       -3.24396        0.87593
H          0.87933        0.99199       -0.73766
H          0.66543        0.31235        0.87693
H          0.65354       -0.75173       -0.56094
H          3.19084        0.71741       -0.51274
H          1.47625       -1.91945        1.55526
H          2.93628       -2.03901        2.53495
H          2.73472       -3.04734        1.08097
H          4.85844       -2.97958        0.76774
H          8.19808       -3.06746        0.87826
