14

C          1.08979        0.02081        0.00973
C          2.59578        0.09802       -0.08386
N          3.14499        1.24612        0.09388
C          4.60627        1.27227       -0.09410
C          5.31968       -0.04458        0.11899
O          6.54240       -0.11882        0.22785
O          4.53237       -1.15661        0.20768
N          3.26269       -1.06582       -0.37069
H          0.65202        1.02292        0.04556
H          0.81126       -0.52510        0.91555
H          0.69423       -0.50770       -0.86225
H          5.01256        1.97387        0.64300
H          4.83607        1.64268       -1.09782
H          2.73284       -1.92318       -0.23837
