19

C          1.05499       -0.00666        0.03146
C          2.58363       -0.00761        0.04237
N          3.08448        0.42696       -1.26252
C          3.11191        0.89921        1.15972
C          4.63492        0.88209        1.27680
O          5.05405        1.73603        2.35794
C          5.02680        1.17697        3.59201
O          4.67270        0.04453        3.87685
H          0.66609       -0.66728       -0.75168
H          0.65495        0.99840       -0.14404
H          0.66200       -0.36188        0.98975
H          2.93088       -1.03222        0.21978
H          2.72745        1.35892       -1.47703
H          2.71192       -0.18353       -1.99021
H          2.67381        0.58530        2.11550
H          2.77472        1.93392        1.01399
H          5.09757        1.28456        0.36938
H          5.02404       -0.13413        1.41379
H          5.37245        1.92102        4.32691
