17

C          1.00271        0.13078        0.01141
C          2.48586        0.08727       -0.02883
C          3.27258       -0.99023       -0.08714
C          4.70560       -0.59470       -0.04603
N          4.69744        0.88529       -0.22310
C          3.30977        1.32371        0.04905
C          5.35388       -0.93146        1.29717
O          5.07123       -1.90897        1.98886
H          0.56950       -0.87324       -0.04349
H          0.61506        0.71121       -0.83158
H          0.65975        0.59618        0.94073
H          2.93723       -2.01769       -0.10783
H          5.29503       -1.05826       -0.84263
H          4.86767        1.06253       -1.21375
H          2.99997        2.06854       -0.69087
H          3.24895        1.76936        1.04756
H          6.19778       -0.28084        1.58585
