17

C         -0.50115        1.27203        0.89374
C         -1.79068        0.58064        0.41170
C         -0.93349       -0.15373       -0.64398
C         -0.36657       -1.55254       -0.31744
N          0.85377       -1.78738        0.05710
O          1.64328       -0.63870        0.30779
C          1.47892        0.41747       -0.64358
C          0.08738        0.99339       -0.51797
H         -0.01448        0.74054        1.71989
H         -0.60412        2.32367        1.16900
H         -2.51923        1.27313       -0.02737
H         -2.30312       -0.04617        1.14528
H         -1.42145       -0.17937       -1.62728
H         -1.04102       -2.41038       -0.46811
H          1.67550        0.03739       -1.65394
H          2.23048        1.18185       -0.42484
H         -0.09622        1.81401       -1.22350
