16

C          1.57058       -0.02192        0.42737
C          3.04245       -0.00505        0.07241
C          3.64954       -1.34419       -0.38331
N          4.83077       -1.09956        0.47580
C          4.07080       -0.05513        1.21046
C          4.66609        1.35563        1.07202
N          4.26610        2.00831        0.02870
O          3.34770        1.18521       -0.71739
H          1.32032       -0.86936        1.07391
H          0.95805       -0.09783       -0.47736
H          1.28237        0.89511        0.95195
H          3.87112       -1.42383       -1.45151
H          3.08155       -2.23314       -0.08253
H          5.61273       -0.71556       -0.06423
H          3.71443       -0.33753        2.20261
H          5.35904        1.75624        1.82549
