12

C         -2.13304        0.01428       -0.21990
C         -1.28831        1.30319        0.09120
C         -0.00166        0.66192        0.06074
C         -0.01480       -0.67007       -0.06886
O         -1.25569       -1.17860       -0.16508
N          1.24757       -1.13247       -0.05406
N          2.06308       -0.06662        0.07522
O          1.25215        1.10724        0.15689
H         -2.55316        0.06215       -1.23164
H         -2.95052       -0.11617        0.49691
H         -1.53733        1.69962        1.07925
H         -1.43802        2.07260       -0.66874
