17

C          1.07248        0.11332        0.03742
C          2.58648        0.04935        0.07052
O          3.11225        1.20772       -0.57552
C          4.53546        1.19955       -0.57735
C          4.99691        2.44038       -1.26925
C          5.77260        2.44446       -2.36445
C          6.21146        3.64553       -2.98547
N          6.58905        4.61672       -3.49492
H          0.63642       -0.76512        0.52201
H          0.70988        0.16312       -0.99449
H          0.71185        1.01266        0.54721
H          2.92959       -0.85093       -0.45108
H          2.93373        0.01636        1.10912
H          4.89947        0.29911       -1.08510
H          4.90701        1.20120        0.45351
H          4.66889        3.38024       -0.82751
H          6.09957        1.51565       -2.81824
