21

C          1.10152        0.27255        0.12025
C          2.52705       -0.22516        0.23367
C          2.84919       -1.56374       -0.55553
C          4.23604       -0.88122       -0.71237
C          5.24228       -0.53034       -1.77768
C          5.59134        0.91921       -1.33580
C          4.43805        1.36697       -0.39658
N          3.42483        0.39888       -0.75746
H          0.42841       -0.36754        0.70002
H          0.74675        0.27449       -0.91652
H          1.01169        1.29127        0.51109
H          2.89192       -0.21433        1.27032
H          2.29857       -1.71633       -1.49118
H          2.82661       -2.47846        0.04145
H          4.80714       -1.04959        0.22218
H          4.80011       -0.53517       -2.78087
H          6.11976       -1.18259       -1.77466
H          5.67579        1.56770       -2.21437
H          6.54573        0.94157       -0.79805
H          4.12522        2.39370       -0.60638
H          4.74829        1.30154        0.65349
