19

C          0.90833       -0.02706        0.07000
C          2.40444        0.04636        0.08472
C          3.12739        1.16143        0.30956
C          2.49476        2.50487        0.58049
C          4.64560        1.17796        0.31292
C          5.44575       -0.08985        0.05593
N          5.24721        2.31609        0.54370
O          6.64083        2.19090        0.51843
H          0.59020       -1.05444       -0.13679
H          0.49061        0.61014       -0.71532
H          0.49072        0.25662        1.04075
H          2.87736       -0.90922       -0.10793
H          1.40158        2.47426        0.57418
H          2.79763        3.23119       -0.18151
H          2.79742        2.87897        1.56455
H          4.84492       -0.97731       -0.12415
H          6.08106       -0.29283        0.92410
H          6.08121        0.06138       -0.82262
H          6.93433        3.10217        0.70348
