19

C          1.05074        0.21799       -0.52300
N          2.47393        0.06296       -0.23615
C          2.85101        0.47961        1.14470
C          2.20718       -0.33259        2.26245
C          2.61497        0.02511        3.66669
O          1.96043        0.76082        4.40056
C          4.28767        0.94508        1.31097
C          3.16881        1.94490        1.36633
H          0.86863        0.01836       -1.58366
H          0.70084        1.23164       -0.30367
H          0.45210       -0.50045        0.04506
H          2.99593        0.60790       -0.92381
H          2.43646       -1.39576        2.12160
H          1.11737       -0.22921        2.21595
H          3.57830       -0.39121        4.00337
H          4.93560        0.95778        0.44030
H          4.82608        0.73456        2.22698
H          3.06570        2.63523        0.53614
H          2.93628        2.40016        2.32307
