16

C          1.20035       -0.02134        0.01232
C          2.71441       -0.05173        0.07446
O          3.09987       -0.29483        1.43174
C          4.42474       -0.37587        1.64338
N          4.88406       -0.28207        2.84152
N          6.23546       -0.35686        2.95371
C          6.83798       -0.12470        4.16286
O          8.05113       -0.15518        4.33021
H          0.85588        0.23796       -0.99250
H          0.79773        0.70607        0.72499
H          0.78631       -0.99736        0.28617
H          3.11844        0.91630       -0.24191
H          3.10379       -0.84169       -0.57665
H          5.02914       -0.51007        0.73237
H          6.83279       -0.55239        2.15871
H          6.12206        0.10404        4.97027
