16

C          0.98796        0.03892        0.15959
N          2.42362       -0.11244        0.09543
C          3.03097       -1.31589        0.01700
C          4.38863       -1.51733       -0.08298
O          4.66546       -2.84873       -0.14849
C          3.47526       -3.49622       -0.09593
N          3.51864       -4.82992       -0.16086
C          2.43913       -2.60002        0.01783
H          0.72898        1.10162        0.19051
H          0.58584       -0.43037        1.06350
H          0.50438       -0.40003       -0.71936
H          2.95330        0.75021        0.00093
H          5.24568       -0.86172       -0.11940
H          4.41644       -5.28523       -0.03500
H          2.71699       -5.38782        0.10839
H          1.39208       -2.84987        0.07862
