14

O          1.05591        0.17964        0.27182
C          2.45504        0.07068        0.01132
C          2.79707       -1.34605       -0.44973
O          1.97236       -2.25988       -0.47358
C          2.90790        1.07145       -1.03430
C          2.07408        1.88848       -1.70209
C          4.30672        1.18696       -1.31136
C          5.48013        1.27107       -1.54736
H          0.74153       -0.73066        0.44407
H          2.97752        0.24930        0.95647
H          3.85872       -1.53898       -0.67934
H          1.00237        1.86948       -1.52782
H          2.43598        2.60662       -2.43215
H          6.52128        1.35255       -1.76912
