14

C          1.21283       -0.01168        0.12870
N          2.64154        0.01117       -0.08444
C          3.49496        1.04138        0.02320
N          3.22732        2.24131        0.37351
O          4.76510        0.68646       -0.28600
C          4.77280       -0.70808       -0.59128
C          3.33847       -1.10799       -0.41967
O          2.89570       -2.23896       -0.55417
H          0.80166        0.99347        0.23431
H          1.00319       -0.59274        1.03163
H          0.73548       -0.51188       -0.71990
H          2.23942        2.35561        0.58934
H          5.41607       -1.23438        0.11728
H          5.09784       -0.85908       -1.62324
