20

C          1.18835        2.49058        0.51137
N          2.59181        2.19331        0.60661
C          3.02660        0.91309        0.88211
O          2.27619       -0.05311        0.97609
C          4.54726        0.79193        1.01604
N          5.09271        1.73345        2.02771
C          4.60709        1.38490        3.37030
C          6.55844        1.64655        2.01336
H          1.06087        3.56515        0.36141
H          0.68736        2.17962        1.43195
H          0.76093        1.94058       -0.33229
H          3.25600        2.93714        0.79578
H          4.96450        1.02445        0.02806
H          4.79946       -0.24796        1.25440
H          3.52144        1.50651        3.44241
H          5.04025        2.05800        4.11943
H          4.86024        0.35519        3.64930
H          6.95234        1.92817        1.03055
H          6.91747        0.63737        2.25083
H          6.99469        2.34359        2.73785
