19

C          1.04151        0.16699       -0.10150
C          2.53359        0.18662       -0.10571
C          3.28759       -0.65283       -1.09786
C          3.35589        0.86407       -1.20223
C          2.62358        1.53893       -2.34104
C          4.62866        1.57661       -0.76831
C          5.67490        1.16092       -1.71460
N          6.51238        0.83354       -2.44800
H          0.68159       -0.52065        0.67074
H          0.62179       -0.16231       -1.05719
H          0.65008        1.16344        0.12391
H          2.91461        0.22513        0.91053
H          2.73390       -1.19618       -1.85708
H          4.15553       -1.19828       -0.74010
H          1.83710        0.90503       -2.76251
H          3.30987        1.78769       -3.15729
H          2.16147        2.46807       -1.99154
H          4.91508        1.30271        0.25302
H          4.48803        2.66252       -0.79289
