21

C          1.03528        0.10720       -0.10398
N          2.49107        0.10058       -0.00197
C          3.15538       -0.68892       -1.03386
C          3.14719        0.82189       -1.08898
C          4.39490        1.59327       -0.76988
C          4.16978        3.10408       -0.78519
C          3.14105        3.57354        0.23755
O          2.99742        4.98705        0.15322
H          0.62048       -0.57959        0.64101
H          0.64832       -0.19158       -1.08513
H          0.64902        1.10673        0.12158
H          2.55114       -1.23203       -1.75096
H          4.06613       -1.19219       -0.73339
H          2.54349        1.28119       -1.86463
H          5.15697        1.34706       -1.51985
H          4.80502        1.29346        0.20356
H          3.85777        3.42884       -1.78598
H          5.12409        3.61157       -0.59486
H          3.43849        3.30813        1.25621
H          2.15625        3.13824        0.04284
H          3.85189        5.37982        0.40293
