14

C          0.99960        0.03903       -0.01674
C          2.31701       -0.05945       -0.21412
O          3.03980        1.08146       -0.51276
C          4.33695        0.54847       -0.82581
O          4.43788       -0.84671       -0.50723
N          3.12196       -1.15853       -0.18727
C          2.88711       -2.47170        0.10199
N          3.73855       -3.44383        0.10505
H          0.50659        1.00364       -0.07816
H          0.38078       -0.82486        0.19879
H          5.09791        1.10005       -0.26461
H          4.51774        0.67834       -1.89874
H          1.83661       -2.68767        0.35970
H          4.64645       -3.03535       -0.15403
