16

C          0.99314        0.28970       -0.88774
N          2.25619        0.17425       -1.12917
N          3.03208        1.03598       -0.42952
C          4.47175        0.93383       -0.70155
C          5.18772        1.99522        0.18605
C          6.24162        0.95219        0.62543
C          5.25781       -0.13180        0.13205
O          5.19332       -1.32719        0.32811
H          0.27841       -0.36698       -1.40914
H          0.56771        1.01962       -0.17701
H          2.67746        1.99301       -0.48936
H          4.75591        0.96382       -1.75832
H          4.60456        2.38316        1.03168
H          5.59272        2.85097       -0.36421
H          6.45544        0.92706        1.69587
H          7.17442        0.97537        0.05464
