14

C          1.15244       -0.06486       -0.12461
N          2.59286       -0.05234       -0.11781
N          3.30461       -0.41967       -1.19360
C          4.60064       -0.38936       -1.09542
C          5.43026        0.01146        0.10555
O          4.94452        0.36298        1.17017
C          5.22688       -0.80144       -2.33147
C          5.77382       -1.14177       -3.34573
H          0.77003        0.25930        0.84863
H          0.76607       -1.07036       -0.31658
H          0.75882        0.61979       -0.88179
H          3.05635        0.21994        0.75570
H          6.51657       -0.04499       -0.06587
H          6.25856       -1.43998       -4.24645
