20

C          2.84115       -0.42547        1.37062
C          2.46240       -0.01559       -0.04586
C          2.98938        1.36577       -0.42884
C          4.50612        1.38949       -0.51069
N          5.20009        1.81992        0.50930
N          5.17750        0.92249       -1.62033
C          4.67444        0.61485       -2.93515
O          6.55471        1.18722       -1.59429
H          2.36811       -1.37876        1.62652
H          2.51191        0.32267        2.09886
H          3.92295       -0.55522        1.47277
H          1.36914       -0.00664       -0.12461
H          2.82968       -0.77278       -0.74800
H          2.65158        2.11395        0.29896
H          2.57455        1.66758       -1.39540
H          4.57162        2.09392        1.27253
H          3.59014        0.48348       -2.95231
H          5.12083       -0.32189       -3.28524
H          4.93514        1.40488       -3.64760
H          6.68507        1.48833       -0.66416
