19

C          1.03657       -0.12046       -0.24428
C          2.52257        0.14840        0.01514
C          2.76135        0.16537        1.53553
C          3.61398       -0.63204       -0.86897
N          4.49795        0.58292       -0.53473
C          3.19016        1.29894       -0.88498
C          3.02525        0.91933       -2.31465
C          3.31349       -0.38731       -2.30273
H          0.72882       -1.06836        0.20991
H          0.78279       -0.17587       -1.30654
H          0.42425        0.67689        0.19230
H          2.38177       -0.75613        1.99213
H          2.24104        1.01162        1.99505
H          3.81850        0.23962        1.80935
H          3.98529       -1.60904       -0.56151
H          5.25061        0.74653       -1.20114
H          3.10164        2.34719       -0.60259
H          2.73650        1.54646       -3.14284
H          3.32190       -1.09487       -3.11430
