19

C          1.43491        1.31487       -0.10548
C          2.77543        0.66404       -0.06703
C          3.48248        0.37892       -1.16518
O          4.74105       -0.16187       -1.09339
C          5.39720       -0.46155       -2.26022
C          6.73108       -0.53844       -2.31752
C          7.50458       -0.84897       -3.55210
N          8.37891        0.26837       -3.87117
H          1.05290        1.44195        0.91286
H          0.71534        0.70424       -0.65978
H          1.49819        2.30723       -0.56281
H          3.19699        0.43543        0.90869
H          3.12875        0.59431       -2.16432
H          4.75369       -0.62849       -3.11339
H          7.30700       -0.35769       -1.41218
H          6.84487       -1.05496       -4.40239
H          8.11075       -1.74524       -3.38013
H          7.80785        1.08428       -4.08760
H          8.90082        0.05444       -4.71838
