19

C          1.09874       -0.05605       -0.15161
C          2.62056       -0.09783       -0.11971
C          3.12362       -0.61274        1.22303
O          3.05147       -0.98212       -1.16119
N          4.33712       -0.60447       -1.58092
C          4.70993       -1.38790       -2.53873
C          6.02492       -1.23026       -3.18970
C          6.39680       -2.05124       -4.17751
H          0.70273        0.60683        0.62380
H          0.67362       -1.05597       -0.01081
H          0.74871        0.30012       -1.12658
H          3.00292        0.91433       -0.30314
H          2.78794       -1.64043        1.40044
H          2.77388        0.01830        2.04596
H          4.21837       -0.63173        1.24395
H          4.06515       -2.20351       -2.91213
H          6.65917       -0.42797       -2.83100
H          5.76191       -2.85479       -4.53753
H          7.36487       -1.92957       -4.65331
