21

C          2.61412        0.52606        1.44003
C          2.23741       -0.03963        0.07587
N          2.61257        0.88833       -0.98997
C          2.94277       -1.33446       -0.21668
C          2.69107       -2.58461        0.59315
C          2.15340       -2.48444       -0.80920
C          2.73010       -3.29655       -1.91764
O          2.07219       -2.95305       -3.12876
H          2.12145        1.48901        1.61487
H          3.69574        0.67090        1.53665
H          2.30094       -0.15424        2.23967
H          1.15110       -0.18196        0.04159
H          3.60204        1.12085       -0.90635
H          2.11794        1.76869       -0.85103
H          3.97276       -1.18693       -0.52877
H          1.97696       -2.54550        1.40895
H          3.53075       -3.24445        0.78046
H          1.07555       -2.40052       -0.89864
H          3.80346       -3.12505       -2.04785
H          2.57103       -4.36275       -1.73412
H          2.11364       -1.98359       -3.19636
