17

C          2.74212       -0.47821        1.46098
C          2.53950        0.00027        0.04587
O          1.79300       -0.59816       -0.73075
C          3.25864        1.27725       -0.37152
N          4.71337        1.07490       -0.29450
C          5.41697        2.30488       -0.68100
C          6.90712        2.07083       -0.55753
O          7.68764        2.15963       -1.50100
H          2.19824       -1.41503        1.61138
H          2.35983        0.27035        2.15892
H          3.80246       -0.66265        1.64826
H          2.92775        2.08387        0.29162
H          2.95754        1.52236       -1.39670
H          4.96651        0.33825       -0.96094
H          5.15925        3.13437       -0.01439
H          5.18677        2.58596       -1.71415
H          7.27023        1.82808        0.45612
