20

C          1.04437        0.01324       -0.04865
C          2.56389       -0.05346       -0.07555
C          3.04843       -1.37003       -0.68202
C          4.57172       -1.45155       -0.71754
C          5.14697       -2.76085       -1.24328
N          4.42481       -3.71705       -1.75140
N          6.51530       -2.91799       -1.17420
O          6.98390       -3.93048       -2.02253
H          0.71284        0.95913        0.39057
H          0.62697       -0.80375        0.54893
H          0.63083       -0.05574       -1.06009
H          2.94681        0.05051        0.94629
H          2.95193        0.79132       -0.65639
H          2.65078       -1.46618       -1.69988
H          2.64715       -2.20762       -0.09839
H          4.97168       -1.30563        0.29389
H          4.97331       -0.64278       -1.34043
H          3.42926       -3.48276       -1.74723
H          7.09574       -2.08319       -1.16550
H          6.17173       -4.47419       -2.16089
