21

C          2.97416       -1.26117        0.41066
C          2.53053        0.10951       -0.08397
C          3.06665        0.42308       -1.48579
C          2.57716        1.78894       -1.95583
O          4.49866        0.43862       -1.42642
N          5.01597        0.11726       -2.69128
C          6.30423        0.07276       -2.60837
C          7.13934       -0.24947       -3.80600
H          2.57894       -1.44497        1.41486
H          4.06520       -1.33450        0.46197
H          2.60670       -2.05283       -0.24941
H          2.89076        0.86183        0.62854
H          1.43551        0.15165       -0.08533
H          2.72713       -0.35441       -2.18236
H          2.92077        2.58124       -1.28112
H          1.48495        1.82232       -2.00896
H          2.97955        2.02504       -2.94677
H          6.83793        0.26202       -1.66041
H          6.51600       -0.39338       -4.69178
H          7.70891       -1.16038       -3.60492
H          7.84066        0.57069       -3.97880
