19

C          1.00033       -0.01227        0.05976
C          2.48155       -0.07475        0.04991
C          3.26122       -1.15535       -0.00245
C          4.69615       -0.75040        0.05427
C          5.39038       -1.10880        1.38701
N          5.40761       -2.54124        1.70532
O          4.67358        0.69046       -0.08418
C          3.32280        1.14624        0.11958
H          0.55613       -1.01111       -0.00145
H          0.63544        0.57248       -0.79023
H          0.64643        0.45735        0.98298
H          2.92694       -2.17918       -0.06157
H          5.25259       -1.16196       -0.79503
H          4.90946       -0.56701        2.21159
H          6.42237       -0.73990        1.35449
H          4.44758       -2.87010        1.80465
H          5.83891       -2.66584        2.62091
H          3.07995        1.86763       -0.66477
H          3.25868        1.62941        1.09912
