18

C          0.97434       -0.03929        0.18880
C          2.48058        0.03818       -0.04300
C          3.20775        1.08346        0.83651
C          4.21367       -0.03026        1.14190
N          3.21054       -1.03650        0.72929
C          2.84590        0.06126       -1.60292
N          3.62345       -0.99073       -2.01177
O          2.49759        0.90734       -2.42586
H          0.72489       -0.07127        1.25561
H          0.54895       -0.93220       -0.28190
H          0.47467        0.83682       -0.23877
H          2.64406        1.42547        1.71225
H          3.61765        1.95460        0.31763
H          4.53178       -0.10344        2.18593
H          5.10624       -0.02085        0.50609
H          2.66974       -1.39528        1.51785
H          3.94362       -1.66307       -1.32379
H          3.93060       -1.03979       -2.97153
