18

C          2.32006        1.01520       -1.11272
C          2.50148        0.04989        0.04765
N          3.00524        0.74680        1.22680
C          2.03474        1.26552        2.17560
C          4.35596        0.88908        1.45783
N          5.30355        0.46515        0.69305
C          6.58233        0.69976        1.12713
O          6.91665        1.25011        2.17172
H          1.96055        0.47925       -1.99723
H          3.26267        1.50721       -1.37340
H          1.59114        1.79457       -0.86791
H          3.18521       -0.75473       -0.24573
H          1.54468       -0.43540        0.27187
H          1.00490        1.12026        1.83423
H          2.18687        2.33926        2.32806
H          2.14490        0.75814        3.13982
H          4.55676        1.42080        2.40761
H          7.35689        0.33158        0.43232
