17

C          0.98771       -0.02108       -0.03625
C          2.47144       -0.04163       -0.10965
C          3.25568       -1.11504       -0.23450
C          4.68816       -0.72800       -0.21045
N          4.70551        0.74387       -0.23625
C          3.30513        1.19092        0.01868
C          2.91543        2.25633       -1.00728
O          3.40262        2.35317       -2.13221
H          0.57185       -1.03410       -0.05867
H          0.56663        0.53059       -0.88207
H          0.65760        0.45627        0.89105
H          2.91613       -2.13923       -0.31482
H          5.22734       -1.13419       -1.07166
H          5.16605       -1.09067        0.70527
H          4.92251        1.02706       -1.19916
H          3.24046        1.62346        1.02191
H          2.12120        2.94779       -0.67693
