17

C          1.12445       -0.02007        0.07797
C          2.64786        0.00388        0.03521
C          3.16672        1.19298       -0.76507
C          3.19424        0.03915        1.43122
N          3.00397        0.97475        2.29859
O          3.69527        0.55893        3.45246
C          4.25780       -0.71097        3.13240
O          3.94051       -1.02118        1.79254
H          0.70722       -0.09832       -0.93125
H          0.72083        0.88641        0.54291
H          0.76604       -0.87566        0.66142
H          2.99706       -0.91726       -0.44759
H          2.81646        2.14328       -0.34732
H          2.83029        1.13621       -1.80549
H          4.26190        1.21571       -0.76339
H          3.83808       -1.47252        3.79659
H          5.34360       -0.67092        3.26046
