21

C          0.94509        0.00884       -0.23732
C          2.44557        0.10649        0.01936
N          3.10204       -1.14025       -0.40905
C          3.04560        1.29823       -0.73525
O          2.45933        2.57897       -0.32975
C          3.78528        3.18042       -0.37775
C          4.43042        1.79314       -0.25094
C          5.62351        1.48572       -1.12714
H          0.51366       -0.86232        0.26932
H          0.72208       -0.07343       -1.30709
H          0.42753        0.89737        0.13966
H          2.60938        0.22647        1.09651
H          2.85580       -1.33867       -1.37904
H          2.72262       -1.91748        0.13137
H          2.95701        1.19084       -1.82626
H          3.95938        3.85865        0.46141
H          3.94149        3.70907       -1.32413
H          4.63906        1.53880        0.79691
H          5.43275        1.73317       -2.17633
H          5.87587        0.42211       -1.07087
H          6.49903        2.05401       -0.79761
