15

C          1.59755        0.37519       -0.63945
C          2.75194        0.16610       -0.37755
C          4.09471       -0.09625        0.04084
C          4.43817       -1.48809        0.50222
O          5.64208       -1.88413       -0.19603
C          6.33830       -0.67892       -0.55828
C          5.29747        0.38731       -0.66717
N          4.85242        1.07119        0.53815
H          0.56334        0.55133       -0.82339
H          3.66127       -2.21980        0.25646
H          4.63114       -1.52150        1.58155
H          6.87121       -0.84862       -1.49733
H          7.07173       -0.45544        0.22614
H          5.22808        0.87783       -1.62488
H          4.36134        1.93386        0.29751
