20

C          1.03547        0.18570        0.05553
C          2.52157        0.06445        0.04110
C          3.29466       -0.67378       -1.02582
C          2.63945       -1.38306       -2.16139
C          3.32138        0.84245       -0.98826
C          4.55173        1.55404       -0.58590
N          4.43533        2.43814        0.42918
N          5.66150        1.32636       -1.19159
H          0.61088       -0.49872        0.79644
H          0.57545       -0.03599       -0.91077
H          0.74923        1.20402        0.33580
H          2.91265        0.00499        1.05206
H          4.18068       -1.20956       -0.69680
H          1.82312       -0.80719       -2.60715
H          2.23987       -2.34471       -1.82483
H          3.37251       -1.57879       -2.95058
H          2.76086        1.36399       -1.75959
H          3.71832        2.25710        1.11889
H          5.33307        2.69686        0.82292
H          5.51793        0.63412       -1.93369
