16

C          0.92224       -0.01957        0.08980
N          2.37189        0.05140        0.15744
C          2.97893        1.35767       -0.00829
C          4.47620        1.33585        0.17382
O          5.09589        2.39390        0.34909
C          5.21780        0.03338        0.00037
N          4.40259       -1.17973        0.04146
C          3.13133       -1.07697        0.11135
H          0.46500        0.97603        0.12157
H          0.53282       -0.59368        0.93650
H          0.60591       -0.50753       -0.83792
H          2.57001        2.04274        0.74357
H          2.76188        1.75084       -1.00804
H          5.96012       -0.02847        0.80417
H          5.74796        0.06897       -0.95752
H          2.53214       -2.00361        0.14100
