21

C          0.89349        0.07879        0.07143
C          2.41080        0.01531        0.11648
C          3.11466        1.08276        0.99628
C          4.16974        0.01495        1.35959
C          3.15696       -1.08021        0.93763
N          2.38717       -1.48308        2.11605
C          3.69796       -2.23642        0.19401
C          2.90138       -3.21652       -0.25313
H          0.56659        0.94755       -0.50938
H          0.45382        0.16413        1.06989
H          0.48459       -0.81620       -0.40753
H          2.78645        0.06339       -0.91870
H          2.52716        1.42949        1.85446
H          3.49725        1.95660        0.46147
H          4.50152        0.01949        2.40325
H          5.06307        0.07725        0.72438
H          2.09636       -0.72095        2.72336
H          2.88161       -2.14789        2.70772
H          4.76442       -2.27613       -0.00746
H          1.83065       -3.20610       -0.06935
H          3.30830       -4.05657       -0.80581
