15

C          0.90645       -0.06693        0.01453
C          2.42677       -0.06749       -0.09169
C          3.13108        1.03667        0.77164
C          4.12204       -0.06781        1.20184
O          5.24305       -0.06797        1.65781
C          3.13081       -1.17191        0.77151
C          2.84730       -0.06745       -1.48645
N          3.18623       -0.06745       -2.59588
H          0.57779       -0.06655        1.05914
H          0.47627       -0.95413       -0.46534
H          0.47663        0.81928       -0.46616
H          2.54609        1.42453        1.61206
H          3.58409        1.86934        0.22792
H          2.54562       -1.55963        1.61201
H          3.58345       -2.00477        0.22783
