19

C          0.97635        0.00005        0.02750
C          2.49490        0.01698        0.14672
C          3.00447        0.40199        1.54722
N          2.55358       -0.55802        2.56811
C          4.54968        0.49477        1.53667
O          5.07544        0.86686        2.82318
C          4.96606        2.17953        3.13629
O          4.52304        3.06629        2.42421
H          0.68439       -0.19941       -1.00867
H          0.54888        0.96401        0.32046
H          0.53118       -0.78157        0.65029
H          2.88605        0.73515       -0.58487
H          2.88581       -0.96719       -0.14109
H          2.59181        1.37873        1.82346
H          2.80736       -1.50532        2.29186
H          1.53735       -0.53874        2.63570
H          4.89997        1.20017        0.77215
H          4.98623       -0.47973        1.28761
H          5.35700        2.33676        4.15394
