19

C          0.95935       -0.01362        0.03233
C          2.46218       -0.02831        0.03279
C          3.24334       -1.16832        0.81984
N          4.40432       -0.71820       -0.12882
C          3.23459       -0.72769       -1.16073
C          4.62339        0.74344        0.27845
C          4.22114        1.94758       -0.51492
C          3.18352        1.29111        0.34664
H          0.55194       -1.00463       -0.19320
H          0.57459        0.68379       -0.71873
H          0.56925        0.29189        1.00854
H          2.91068       -2.20569        0.68788
H          3.42830       -0.98785        1.88436
H          2.89896       -1.72727       -1.46816
H          3.40548       -0.13875       -2.06624
H          5.26912        0.88592        1.13906
H          4.15141        1.87046       -1.59220
H          4.60476        2.91039       -0.19274
H          2.86764        1.72337        1.28622
