21

C          0.54929        0.06160       -0.95668
C          1.85152       -0.48714       -0.50234
C          3.21925       -0.11954       -0.99980
C          2.72766        0.47243        0.28991
C          2.94628        0.08539        1.73884
C          4.23738       -0.10181        2.47906
C          3.43904        1.13791        2.71103
N          2.64965        1.37036        3.91805
H          0.38446       -0.14500       -2.01915
H          0.46672        1.14091       -0.78416
H         -0.25345       -0.41419       -0.38178
H          1.75205       -1.51657       -0.17000
H          4.00263       -0.86817       -0.94913
H          3.28432        0.52292       -1.87272
H          2.53043        1.54321        0.17774
H          2.14367       -0.55457        2.11082
H          5.16084       -0.02229        1.92597
H          4.25768       -0.84753        3.26769
H          3.87364        2.05011        2.29039
H          2.15203        0.52992        4.19721
H          1.91842        2.05893        3.72021
