17

C          0.97131        0.15159       -0.00400
C          2.49393        0.08684       -0.13400
N          3.00444       -1.12674        0.50901
C          2.91501        0.13168       -1.57068
C          3.66588        1.02844       -2.18409
O          3.85627        0.77289       -3.51856
C          3.12573       -0.46405       -3.65820
O          2.48352       -0.87293       -2.43182
H          0.66684        0.13801        1.04860
H          0.48122       -0.69239       -0.50387
H          0.58176        1.07445       -0.44863
H          2.91952        0.94774        0.39549
H          2.60774       -1.93275        0.02493
H          2.65736       -1.17426        1.46443
H          4.14156        1.91084       -1.79464
H          3.81996       -1.25155       -3.97278
H          2.35927       -0.33524       -4.43109
