19

C          0.92072       -0.07214       -0.19945
C          2.43711        0.06296       -0.08050
C          2.92777        0.75576        1.21085
C          2.37800        2.18813        1.31956
O          2.45944       -0.01483        2.32417
C          4.47875        0.73355        1.24015
C          4.98579        1.41494        2.50072
N          5.40643        1.98020        3.54646
H          0.66616       -0.62184       -1.11085
H          0.43052        0.90412       -0.25959
H          0.49616       -0.62133        0.64740
H          2.81284        0.59977       -0.95848
H          2.85417       -0.95250       -0.12095
H          1.28393        2.19836        1.35492
H          2.70533        2.80539        0.47771
H          2.69232        2.67326        2.25005
H          1.52761        0.20948        2.49449
H          4.89311        1.24700        0.36537
H          4.84702       -0.29914        1.24446
