17

C          1.03617       -0.32774        0.24115
N          2.41966        0.06884        0.03872
C          2.97504       -0.33640       -1.25247
C          4.34342        0.28358       -1.35757
C          5.44928       -0.46432       -1.48024
O          5.44220       -1.84108       -1.53198
C          4.21679       -2.47238       -1.53049
C          3.04817       -1.83232       -1.40693
H          0.68742        0.06551        1.20159
H          0.91797       -1.41482        0.27932
H          0.38373        0.07802       -0.53755
H          3.00287       -0.32905        0.77375
H          2.36360        0.07264       -2.06665
H          4.41675        1.36527       -1.32854
H          6.45441       -0.07359       -1.54162
H          4.32641       -3.54166       -1.64234
H          2.12377       -2.39666       -1.44580
