16

C          1.21639        0.01634       -0.06799
N          2.67456       -0.00774        0.01865
C          3.31479       -0.77277       -1.04880
C          3.31661        0.73614       -1.08209
C          4.54845        1.48642       -0.72761
O          5.41438        1.71690       -1.56493
N          4.63271        1.88579        0.58228
O          5.86402        2.43843        0.99913
H          0.80094       -0.66297        0.68327
H          0.81510       -0.28182       -1.04391
H          0.84596        1.02248        0.15703
H          2.69807       -1.30029       -1.76524
H          4.23531       -1.28220       -0.78624
H          2.68193        1.22206       -1.81495
H          4.05477        1.42569        1.28104
H          6.37793        2.46298        0.16310
