19

C          1.03964       -0.10339        0.24193
C          2.55497       -0.04858        0.10362
C          3.05321        1.28779       -0.46149
O          2.66600        2.34290        0.43670
N          2.86455        3.58883       -0.18993
C          2.60840        4.52445        0.65809
C          4.56136        1.26374       -0.56613
C          5.24600        1.39978       -1.70981
H          0.73019       -1.10217        0.57021
H          0.54915        0.10706       -0.71142
H          0.68236        0.61636        0.98459
H          2.88089       -0.87041       -0.54598
H          2.99002       -0.22382        1.09583
H          2.58699        1.46377       -1.44004
H          2.73529        5.57828        0.36540
H          2.26388        4.32646        1.68643
H          5.10542        1.15433        0.36617
H          4.74133        1.54276       -2.66034
H          6.33053        1.39824       -1.70927
