17

C          2.62333       -0.82653        1.11183
N          2.65950        0.18643        0.07575
C          3.21352        0.01202       -1.17117
C          3.46734       -1.13786       -1.80577
C          4.03604       -0.77928       -3.10799
O          4.44145       -1.61018       -3.90594
C          4.01839        0.69935       -3.33486
C          3.61150        1.22804       -1.96902
H          2.10306       -0.43631        1.99202
H          3.63962       -1.10388        1.40981
H          2.09105       -1.72140        0.77376
H          2.72159        1.13941        0.43124
H          3.29735       -2.14750       -1.48583
H          3.27275        0.94236       -4.09797
H          5.00417        1.06332       -3.63436
H          2.79025        1.94924       -2.05579
H          4.45568        1.73413       -1.48265
