17

C          3.42117       -0.97821       -0.39431
N          2.52224        0.14623       -0.15170
C          3.14296        1.17690        0.69608
C          4.27567        2.00074        0.15292
C          2.92085        2.63253        0.35165
C          2.70486        3.61336        1.44275
O          1.55053        4.30703        1.32887
O          3.48515        3.75698        2.37032
H          2.92208       -1.71663       -1.02807
H          3.71051       -1.46690        0.54096
H          4.32656       -0.65496       -0.92046
H          1.67474       -0.21235        0.29257
H          3.20032        0.92273        1.75456
H          4.60497        1.82947       -0.86487
H          5.07767        2.25872        0.83680
H          2.37797        2.83863       -0.56557
H          1.02109        4.04502        0.55459
