19

C          0.98270        0.07849       -0.34688
C          2.49382        0.17715       -0.23594
C          2.98008        1.60934       -0.10090
O          2.20605        2.56684       -0.09746
C          4.48493        1.77894        0.03792
C          4.91286        3.20687        0.18032
C          4.63622        3.98380        1.44040
N          5.99403        3.56757        1.09624
H          0.67558       -0.96476       -0.46483
H          0.61303        0.64430       -1.20837
H          0.49634        0.47857        0.54980
H          2.95516       -0.25734       -1.12839
H          2.83143       -0.38375        0.64251
H          4.95245        1.35849       -0.86057
H          4.80872        1.18370        0.89922
H          4.87463        3.75106       -0.75735
H          4.15758        3.48477        2.27336
H          4.41593        5.03986        1.34028
H          6.28400        2.78571        1.68588
