15

C          1.94260       -1.05785       -0.61864
C          2.32873       -0.02669        0.15171
C          3.13808       -0.16180        1.40229
N          2.25435       -0.25605        2.54157
C          1.83708        0.84968        3.23299
O          2.15513        2.00110        2.97700
C          2.00611        1.35752       -0.29829
O          1.41627        1.60469       -1.34490
H          2.17466       -2.08423       -0.35664
H          1.38007       -0.89845       -1.53616
H          3.82892        0.67974        1.52722
H          3.73716       -1.07905        1.38494
H          1.88362       -1.16134        2.79997
H          1.15940        0.58866        4.06278
H          2.35081        2.16472        0.36990
