10

O         -0.92930        1.33879        0.00421
C         -1.91713        0.36408        0.00387
N         -1.51933       -0.90258        0.00184
C         -0.19683       -0.69407        0.00087
C          0.18952        0.57715        0.00218
N          1.51206        0.78543        0.00139
C          1.90976       -0.48126       -0.00054
O          0.92185       -1.45589       -0.00100
H         -2.93428        0.73577        0.00534
H          2.92688       -0.85304       -0.00178
