20

C          0.94966        0.09076       -0.21231
C          2.42278        0.16433        0.11801
C          2.73985        0.17121        1.60047
N          2.17656        1.35736        2.23415
N          3.36007       -0.59727       -0.73601
C          3.31965        0.85743       -0.90489
C          4.53500        1.65475       -0.56139
O          5.61313        1.22295       -1.38351
H          0.44607       -0.65438        0.41205
H          0.77386       -0.17731       -1.25976
H          0.47542        1.06275       -0.03816
H          3.81683        0.13030        1.79163
H          2.30917       -0.72339        2.06366
H          2.62687        2.18947        1.86242
H          2.40129        1.33425        3.22820
H          2.85659       -1.06468       -1.49328
H          2.88226        1.20274       -1.83636
H          4.84857        1.55263        0.47984
H          4.35837        2.71689       -0.75647
H          5.62803        0.25110       -1.28878
