17

C          0.97809        0.16428        0.07728
C          2.49023       -0.00336       -0.01906
C          2.99982       -0.86293        1.13986
O          3.59781       -1.93003        1.02973
N          2.89865       -0.48680       -1.34353
C          2.57508       -1.83728       -1.76852
C          3.57239        0.35261       -2.20661
O          3.85567        1.52309       -1.98836
H          0.69371        0.59332        1.04428
H          0.46070       -0.79674       -0.01955
H          0.60968        0.82834       -0.71212
H          2.94382        0.98153        0.14504
H          2.79089       -0.44968        2.14222
H          2.03050       -2.38545       -0.99668
H          3.50300       -2.36227       -2.01502
H          1.95977       -1.77964       -2.67171
H          3.83723       -0.13920       -3.15820
