16

C          1.18314       -0.09359        0.04088
N          2.61741       -0.10939        0.16690
C          3.20821       -0.26247        1.38632
O          2.58856       -0.39420        2.43466
N          4.56878       -0.25464        1.32368
C          5.35553       -0.40570        2.52625
C          6.83468       -0.36733        2.22068
O          7.30115       -0.22549        1.09113
H          0.91998        0.03847       -1.01050
H          0.77767        0.73012        0.63516
H          0.77770       -1.03863        0.41303
H          3.19131       -0.00613       -0.65476
H          5.05410       -0.14420        0.44316
H          5.11211       -1.36419        2.99358
H          5.11212        0.40744        3.21612
H          7.49642       -0.47746        3.09759
