19

C          0.94273        0.00885        0.09093
C          2.45559        0.04206       -0.06896
C          3.01249        1.03888       -1.11532
C          4.51776        0.66461       -1.05425
C          4.28714       -0.81011       -1.25727
C          3.07958       -0.97222       -2.11195
C          2.56910        0.39976       -2.45348
N          3.00142       -1.22431       -0.65980
H          0.57528        0.98491        0.42404
H          0.65770       -0.73390        0.84422
H          0.41581       -0.25116       -0.83154
H          2.90967        0.21329        0.91597
H          2.77246        2.09275       -0.97354
H          4.97753        0.88707       -0.08656
H          5.09924        1.11011       -1.86660
H          5.11592       -1.49387       -1.27264
H          2.95836       -1.78376       -2.80553
H          1.49010        0.42412       -2.62139
H          3.08855        0.82820       -3.31629
