21

C          0.69084        0.08938       -0.03408
C          2.14954        0.36725        0.03246
C          3.20320       -0.50283       -0.60633
C          2.89163       -1.47252       -1.70695
C          2.94758       -0.61419       -2.97117
N          2.51365        0.73635       -2.56498
C          2.93656        0.89065       -1.14627
C          3.88626        2.02475       -0.87834
H          0.42794       -0.69712        0.67868
H          0.34630       -0.22068       -1.02317
H          0.13413        0.99277        0.24518
H          2.40039        0.74350        1.02135
H          4.14199       -0.68439       -0.10447
H          1.89657       -1.90844       -1.57584
H          3.61821       -2.29014       -1.74824
H          2.33425       -1.02101       -3.78286
H          3.98188       -0.55365       -3.33133
H          1.49958        0.79145       -2.62889
H          3.47335        2.95885       -1.27541
H          4.85293        1.84431       -1.35785
H          4.05966        2.17299        0.19298
