21

C          0.92738       -0.00951        0.03994
C          2.41336       -0.05260       -0.12372
C          3.08702       -0.38260       -1.24447
C          2.39734       -0.77009       -2.52913
C          4.60542       -0.35697       -1.24102
N          5.17229       -1.68827       -1.50924
C          5.21213        0.67648       -2.21437
O          6.63411        0.71554       -2.06329
H          0.67812        0.25379        1.07342
H          0.48002       -0.98541       -0.16912
H          0.48485        0.74921       -0.61031
H          2.97401        0.22948        0.76864
H          1.30602       -0.75135       -2.45065
H          2.67708       -1.78557       -2.82898
H          2.67028       -0.08172       -3.33456
H          4.96430       -0.09467       -0.23744
H          4.97580       -1.95206       -2.47293
H          4.68853       -2.36882       -0.92290
H          4.82528        1.68028       -2.01054
H          4.99417        0.42912       -3.25890
H          6.88343       -0.17415       -1.74051
