19

C          1.05979        0.83585        2.25659
N          2.51700        0.76636        2.26385
C          3.05462        1.02533        0.92296
C          4.58616        1.01522        0.87047
C          5.21816       -0.29413        1.28358
O          6.50733       -0.24312        0.67505
C          6.29433        0.49234       -0.53125
O          5.03932        1.17657       -0.48234
H          0.68230        0.64224        3.26544
H          0.62693        0.08649        1.58629
H          0.71042        1.82961        1.95841
H          2.79275       -0.16385        2.57760
H          2.71118        2.00400        0.56330
H          2.66545        0.28727        0.20957
H          5.00178        1.84485        1.45526
H          4.68517       -1.15963        0.87441
H          5.31273       -0.40831        2.36666
H          6.28610       -0.19893       -1.37970
H          7.10499        1.21471       -0.66460
