15

C          1.14351       -0.08155        0.04744
C          2.63490       -0.05096       -0.03643
N          3.34173       -1.12154       -0.18568
O          4.69863       -0.72810       -0.17538
C          4.75408        0.69305       -0.33496
C          3.40087        1.21133        0.07984
C          2.94244        2.29227       -0.84543
O          2.68134        3.42999       -0.46473
H          0.78182       -1.11265        0.02587
H          0.71744        0.46124       -0.80129
H          0.82107        0.39349        0.97704
H          5.00357        0.90753       -1.38065
H          5.55486        1.09339        0.29483
H          3.38487        1.55265        1.11882
H          2.85899        2.02430       -1.91380
