16

C          1.49669       -0.06487       -0.53301
C          2.91302        0.01096       -0.01159
O          3.16993       -1.07583        0.93269
C          4.14972       -1.65251        0.03013
C          4.07053       -0.46034       -0.91226
N          5.08862        0.57739       -0.61038
N          4.63444        1.64022        0.13293
C          3.40872        1.39271        0.46777
H          1.23306       -1.08953       -0.81620
H          1.36542        0.57143       -1.41580
H          0.78599        0.26163        0.23082
H          3.76911       -2.58641       -0.39638
H          5.10904       -1.84417        0.51891
H          3.86711       -0.64638       -1.96879
H          5.99984        0.26031       -0.27201
H          2.75842        2.07455        1.02769
