19

C          1.30958        1.19257        0.22267
N          2.19284        0.05371       -0.14900
C          1.36596       -1.18868       -0.14071
C         -0.00209       -0.72319        0.31947
C         -1.36273       -1.15583       -0.10825
C         -2.16254       -0.07266       -0.15896
C         -1.38130        1.20463        0.10144
C         -0.01198        0.68059       -0.26439
H          1.62338        2.11340       -0.27474
H          1.32319        1.34573        1.30732
H          2.96687       -0.02180        0.50875
H          1.78793       -1.92563        0.54965
H          1.34097       -1.62652       -1.14318
H          0.00320       -0.70652        1.42195
H         -1.68050       -2.17930       -0.24433
H         -3.22172       -0.09010       -0.37215
H         -1.47094        1.51648        1.14664
H         -1.69400        2.01868       -0.55892
H          0.03407        0.64761       -1.37037
