19

C          0.99835        0.14217       -0.11662
C          2.48323        0.02721       -0.14652
C          3.20284       -0.82302       -1.15341
O          2.41525       -1.48094       -2.16060
C          3.29581        0.68932       -1.23904
N          4.53419        1.38345       -0.82933
C          5.64502        1.01145       -1.70699
C          4.98007        2.34932       -1.83056
H          0.58304       -0.57661        0.59715
H          0.53418       -0.04281       -1.08962
H          0.70733        1.14623        0.20721
H          2.89157        0.05509        0.85960
H          4.07341       -1.36238       -0.79189
H          1.86493       -0.86440       -2.66831
H          2.71244        1.18508       -2.01171
H          5.47701        0.27835       -2.48656
H          6.61565        0.96185       -1.22940
H          4.36493        2.54025       -2.70065
H          5.50857        3.21339       -1.44623
