17

C          1.08110        0.05581        0.01200
C          2.60761        0.02303        0.05765
C          3.11038       -1.41636       -0.05983
C          3.20204        0.86788       -1.03633
O          2.89669        2.26688       -0.95688
C          4.26319        1.89595       -0.71546
C          5.17999        2.30089       -1.73575
N          5.94959        2.60636       -2.54994
H          0.65529       -0.55925        0.81224
H          0.70175       -0.31519       -0.94569
H          0.70889        1.07771        0.14316
H          2.92416        0.41174        1.03377
H          2.79500       -1.87133       -1.00594
H          2.72539       -2.03355        0.75818
H          4.20476       -1.45031       -0.02640
H          3.16785        0.41047       -2.01798
H          4.61500        1.98467        0.30472
