17

C          1.23936        0.08791       -0.02667
C          2.53694       -0.18764        0.15048
C          3.15007       -1.53157        0.43889
O          4.45606       -1.25662        0.98698
C          4.83038        0.11029        0.66227
C          4.90154        1.15559        1.78688
N          3.54872        1.62708        1.44406
C          3.57089        0.86896        0.18654
H          0.48823       -0.69615        0.00159
H          0.89153        1.10648       -0.17268
H          3.29027       -2.10104       -0.48581
H          2.57329       -2.11509        1.15891
H          5.67653        0.12463       -0.03148
H          5.68110        1.91057        1.63314
H          4.99422        0.75813        2.80131
H          3.46649        2.63478        1.32894
H          3.69388        1.45550       -0.72813
