18

C          0.81540       -0.30450        0.23169
C          2.28980       -0.06793        0.24444
C          2.79323        1.33577        0.17383
C          2.48160        2.61604       -0.51629
N          3.60109        2.96217       -1.43911
C          4.39107        2.00225       -1.79840
N          4.32805        0.65603       -1.46071
C          2.99123        0.33316       -0.98956
H          0.39944       -0.15994        1.23355
H          0.60036       -1.32961       -0.08486
H          0.29350        0.37683       -0.45051
H          2.79468       -0.75643        0.91088
H          3.61049        1.51742        0.87296
H          2.39237        3.41616        0.22533
H          1.54020        2.57347       -1.07409
H          5.23571        2.21814       -2.47361
H          4.81592        0.01823       -2.07802
H          2.31454        0.34037       -1.84762
