16

C          1.05910       -0.09415       -0.04023
C          2.53916       -0.01431       -0.03515
C          3.38704        1.08094       -0.04383
C          4.70555        0.58304       -0.03427
N          5.82640        1.30945       -0.03995
C          4.65176       -0.78663       -0.01786
N          3.33126       -1.12853       -0.01787
O          2.83971       -2.42564        0.00771
H          0.61382        0.90636       -0.04417
H          0.69641       -0.62086        0.84810
H          0.70346       -0.62310       -0.92969
H          3.07695        2.11701       -0.05566
H          5.81882        2.32385       -0.01768
H          6.75194        0.89540       -0.00091
H          5.43288       -1.53142       -0.00480
H          3.65958       -2.92884       -0.11246
