16

C          1.16736       -0.19518        0.35763
C          2.22023        0.36744       -0.55349
C          0.96922        1.16261       -0.27146
C          1.01805        2.39793        0.58755
N          0.64816        3.63740       -0.10865
C          0.26980        3.48054       -1.32533
N          0.17761        2.33486       -2.07355
O         -0.04358        1.19713       -1.29832
H          1.37424       -0.24249        1.41946
H          0.56540       -1.01698       -0.01343
H          2.33264       -0.06716       -1.53930
H          3.15267        0.68745       -0.10359
H          2.02357        2.53070        1.00406
H          0.33646        2.26973        1.43700
H         -0.01793        4.37186       -1.91007
H         -0.45386        2.38267       -2.86667
