17

C          0.83209        0.08029       -0.01523
C          2.34669       -0.04833        0.02331
C          3.00958        1.09206        0.76229
C          4.32858        0.46266        1.13829
O          4.02796       -0.91216        1.43161
N          2.81243       -1.21095        0.75798
C          2.66106       -2.51064        0.36221
O          1.87894       -2.91733       -0.48928
H          0.53527        1.03047       -0.47104
H          0.40039        0.02828        0.98988
H          0.38542       -0.72646       -0.60574
H          2.73455       -0.12450       -1.00086
H          2.44931        1.33577        1.67464
H          3.11603        2.00325        0.16818
H          4.77658        0.93251        2.01851
H          5.04718        0.49267        0.31129
H          3.30616       -3.19866        0.93290
