13

C          0.92654       -0.06318       -0.02475
C          2.44654       -0.06318       -0.02475
C          3.75040       -0.06318       -0.02475
C          5.19765       -0.05553       -0.01551
O          5.81933       -0.72026       -0.83919
C          5.98105        0.77534        1.01333
N          7.34561        0.69144        0.90604
O          5.42073        1.45518        1.85788
H          0.55345        0.76016        0.59068
H          0.55340       -1.00779        0.38059
H          0.55338        0.05813       -1.04547
H          7.76751        0.11232        0.18788
H          7.92747        1.21005        1.54847
