19

C          1.19988       -0.01833        0.00436
C          2.70334       -0.16341        0.25381
C          3.18211        0.92481        1.21918
O          4.57242        0.82223        1.55025
C          4.97531       -0.44019        1.88219
C          4.31222       -1.56420        1.59378
C          3.04646       -1.56247        0.80477
N          3.18191       -2.54145       -0.27886
H          0.97137        0.95662       -0.43840
H          0.63970       -0.09576        0.94366
H          0.82660       -0.79243       -0.67264
H          3.23099       -0.01372       -0.69932
H          2.60394        0.91957        2.15192
H          3.04139        1.91047        0.76107
H          5.92499       -0.42445        2.40157
H          4.70176       -2.52005        1.92983
H          2.24322       -1.90864        1.46784
H          3.96301       -2.25982       -0.87459
H          2.35861       -2.50178       -0.87872
