20

C          1.14627       -0.00308       -0.05040
C          2.65943       -0.01569       -0.03269
C          3.32391        1.21966       -0.69604
N          4.68440        1.26239       -0.08353
C          4.70253        0.02730        0.74926
C          4.65030       -1.21335       -0.17192
N          3.23136       -1.26162       -0.62490
C          3.30551        0.01246        1.34391
H          0.76422       -0.01435       -1.07695
H          0.75519        0.89300        0.44349
H          0.73427       -0.87320        0.47259
H          2.78765        2.14441       -0.45425
H          3.38871        1.12775       -1.78540
H          4.73395        2.07352        0.53207
H          5.52422        0.01346        1.46842
H          4.88406       -2.12394        0.39062
H          5.33557       -1.13840       -1.02239
H          2.78111       -2.07240       -0.20182
H          3.06576        0.90951        1.92658
H          3.09791       -0.87720        1.94970
