17

C          0.98639        0.20306        0.16814
N          2.41548        0.07059       -0.06956
C          2.84750        0.76798       -1.28791
C          2.73917        2.27473       -1.19715
C          3.79864        2.72345       -2.16880
O          4.84965        1.76593       -2.05255
C          4.34042        0.60265       -1.53862
O          4.99230       -0.41980       -1.38274
H          0.70542       -0.39417        1.04103
H          0.39689       -0.14642       -0.68522
H          0.71682        1.24066        0.38946
H          2.66591       -0.91786       -0.15749
H          2.32975        0.38049       -2.17447
H          2.99692        2.62311       -0.18845
H          1.74500        2.65721       -1.44568
H          4.17691        3.72114       -1.92721
H          3.43962        2.72180       -3.20379
