17

C          1.00841       -0.07075        0.05286
C          2.51853       -0.21956        0.03961
O          3.16013        0.81528        0.85823
C          4.16141       -0.16202        1.27748
C          3.24244       -1.32391        0.85270
N          2.43879       -1.76971        2.00081
C          3.81238       -2.43687        0.14329
C          4.27619       -3.37223       -0.45069
H          0.70511        0.79618       -0.54330
H          0.61585        0.07139        1.06448
H          0.53221       -0.95642       -0.37954
H          2.88333       -0.13778       -0.99549
H          4.39229       -0.07516        2.34432
H          5.08535       -0.03622        0.70149
H          2.08190       -0.99433        2.56046
H          2.95414       -2.36755        2.64409
H          4.67444       -4.20823       -0.97847
