16

C          1.09971       -0.02114       -0.15443
C          2.59320       -0.10106        0.07605
N          3.15273       -1.33153       -0.55875
C          4.12441       -0.89656       -1.28913
N          4.33046        0.42729       -1.32287
C          5.35595        1.12767       -2.05672
C          3.36500        1.03134       -0.57818
O          3.16525        2.22900       -0.45153
H          0.59314       -0.86571        0.32502
H          0.85087       -0.04528       -1.22085
H          0.69002        0.90427        0.26386
H          2.82744       -0.11230        1.14384
H          4.78318       -1.53837       -1.89009
H          6.03854        0.41783       -2.53182
H          5.90884        1.76764       -1.36202
H          4.88553        1.76093       -2.81243
