19

C          0.86952       -0.08665       -0.08807
C          2.37766       -0.01554        0.06058
O          2.98322       -0.80131       -0.96670
C          4.42324       -0.76076       -0.96790
C          4.98145       -1.42313        0.29425
C          4.88440       -1.48851       -2.23725
C          6.34305       -1.43472       -2.41190
N          7.49743       -1.39658       -2.53394
H          0.37576        0.44947        0.72826
H          0.52889       -1.12735       -0.08106
H          0.55074        0.35015       -1.03948
H          2.64286       -0.41303        1.04404
H          2.71542        1.02323       -0.01441
H          4.74626        0.28694       -1.01453
H          4.53491       -2.41157        0.44408
H          4.74770       -0.82858        1.18248
H          6.06940       -1.52562        0.26180
H          4.40345       -1.03426       -3.11322
H          4.54382       -2.53028       -2.22140
