20

C          1.10138        0.30318        0.07479
C          2.58952       -0.01210        0.17842
C          3.43907        1.03661       -0.53558
C          3.27963        1.37837       -1.99734
C          4.25950        0.31715       -1.59511
C          3.86063       -1.09163       -1.46911
C          2.97111       -1.32346       -0.48758
C          2.44484       -2.63364       -0.02602
H          0.89091        1.30637        0.46012
H          0.50705       -0.41311        0.65160
H          0.74624        0.26748       -0.96128
H          2.88548       -0.04616        1.23389
H          3.93981        1.72865        0.12669
H          3.67916        2.32952       -2.33317
H          2.37528        1.08430       -2.51575
H          5.32017        0.52409       -1.65251
H          4.29631       -1.86410       -2.09132
H          2.87262       -3.46157       -0.60045
H          1.35713       -2.67759       -0.12991
H          2.70054       -2.79089        1.02696
