16

C          0.91118       -0.10835        0.13940
N          2.33135        0.21738        0.07626
C          2.79872        1.49774        0.29013
C          4.09002        1.83766        0.20238
O          5.11057        0.98126       -0.11466
C          4.71738       -0.35992       -0.38325
C          3.24298       -0.79499       -0.17902
N          2.91545       -2.04944       -0.26844
H          0.29007        0.79111        0.21659
H          0.69884       -0.74106        1.00711
H          0.59981       -0.63740       -0.76873
H          2.04590        2.23446        0.55500
H          4.46060        2.83830        0.37990
H          5.34368       -1.01355        0.23543
H          4.96782       -0.57424       -1.42909
H          3.74492       -2.62222       -0.45958
