18

C          1.35082       -0.07317       -1.04699
N          2.70158        0.08726       -0.51291
C          3.18875       -1.01500       -0.05991
N          4.44531       -1.13506        0.44037
C          5.15071       -2.24467        0.86768
C          4.59888       -3.41781        1.21729
C          6.65988       -2.08977        0.91589
O          7.08166       -1.22282       -0.13435
H          0.93773        0.91220       -1.28361
H          0.67930       -0.55092       -0.32541
H          1.37025       -0.65890       -1.97172
H          2.62205       -1.96294       -0.08277
H          5.01137       -0.28857        0.35479
H          3.52347       -3.56905        1.22655
H          5.20368       -4.25562        1.54593
H          7.17321       -3.04887        0.78621
H          6.97063       -1.64803        1.86715
H          6.68287       -1.56751       -0.95324
