17

C          1.10970       -0.01431       -0.23186
C          2.43715       -0.00214       -0.04596
C          3.24207       -1.23640        0.27692
N          4.19932       -1.11813        1.37734
C          3.71233       -0.29633        2.48157
C          3.81105        1.17265        2.20248
C          3.58917        1.77356        1.02187
O          3.13592        1.19368       -0.13974
H          0.53400       -0.93061       -0.15158
H          0.57201        0.90249       -0.44842
H          3.79881       -1.52685       -0.62251
H          2.57255       -2.07624        0.49906
H          5.05247       -0.69270        1.01715
H          4.35055       -0.51353        3.34630
H          2.69371       -0.56913        2.78542
H          4.12643        1.79280        3.03888
H          3.73795        2.83606        0.86286
