20

C          0.96114       -0.02007       -0.22885
N          2.41729       -0.11137       -0.14028
C          2.89215       -0.26440        1.25744
C          2.35739       -1.52941        1.97497
O          2.60047       -2.70909        1.20955
C          4.41213       -0.24281        1.29742
C          5.27464       -1.21906        0.53252
N          5.21110        0.18879        0.14195
H          0.68248        0.25628       -1.25096
H          0.56108        0.74629        0.44284
H          0.48268       -0.97943       -0.01419
H          2.78177        0.78734       -0.46547
H          2.55668        0.61092        1.82907
H          1.27621       -1.45976        2.13508
H          2.82979       -1.65454        2.95500
H          2.49700       -2.43620        0.27768
H          4.78266        0.06764        2.26879
H          4.81727       -1.92545       -0.15053
H          6.20426       -1.54341        0.98121
H          4.63402        0.25310       -0.69958
