21

C          2.50521        1.43381        0.14751
N          2.46332       -0.00344       -0.07946
C          2.99886       -0.76872        1.05103
C          3.03074       -2.26627        0.93940
C          4.33433       -1.49703        0.99918
C          5.17999       -1.46052       -0.25051
C          5.14400       -1.54692        2.27458
O          5.59888       -2.87651        2.50080
H          2.10893        1.95591       -0.72808
H          3.52812        1.78291        0.32133
H          1.88336        1.71160        1.00532
H          2.94391       -0.22153       -0.95032
H          2.66883       -0.40011        2.02418
H          2.73410       -2.71871       -0.00039
H          2.70445       -2.83227        1.80448
H          4.59170       -1.60718       -1.16195
H          5.93665       -2.25224       -0.22571
H          5.69559       -0.49769       -0.32954
H          4.56689       -1.22995        3.14890
H          6.02067       -0.89469        2.20249
H          4.80819       -3.42999        2.61097
