15

C          1.14588       -0.21905        0.05608
C          2.61455        0.01250        0.15361
C          3.22057        1.20356        0.31612
O          2.50268        2.38481        0.44387
C          3.09849        3.59686        0.18966
C          2.51467        4.75445        0.50681
C          4.74057        1.20356        0.31612
N          6.00154        1.20356        0.31612
H          0.95959       -1.27170       -0.19041
H          0.70104        0.38379       -0.74153
H          0.65131       -0.00773        1.00595
H          3.23281       -0.87910        0.04834
H          4.05728        3.56561       -0.30777
H          1.54750        4.78404        0.99168
H          3.00933        5.69581        0.28663
