17

C          1.03622       -0.07082        0.00064
C          2.52529       -0.09056       -0.06436
C          3.28105       -0.91747       -1.07713
N          3.19675        0.55878       -1.19300
C          4.42127        1.24765       -0.78439
C          2.59199       -1.65439       -2.16854
O          2.34201       -0.88249       -3.25278
O          2.31736       -2.83856       -2.08228
H          0.68740       -0.77572        0.76308
H          0.56043       -0.33712       -0.94767
H          0.68681        0.92733        0.28317
H          2.96349        0.02496        0.92330
H          4.21786       -1.36183       -0.76113
H          4.91885        1.64677       -1.67396
H          5.14228        0.61333       -0.25679
H          4.17633        2.09623       -0.13653
H          2.60832        0.03549       -3.01566
