17

C          1.18604       -0.51786       -0.15067
C          2.66309       -0.75412       -0.09030
C          3.55123        0.43949        0.10610
O          3.39817        1.32069       -1.01146
N          4.22065        2.44103       -0.81156
C          4.04544        3.26199       -1.79084
C          3.22777       -2.01054       -0.71523
O          3.03622       -1.89509        0.70106
H          0.90878        0.40031        0.37700
H          0.62522       -1.34253        0.30293
H          0.86207       -0.42096       -1.19207
H          4.60357        0.14109        0.18415
H          3.26992        0.96558        1.02594
H          3.34763        3.06661       -2.62203
H          4.60630        4.20847       -1.81904
H          2.56171       -2.66909       -1.25935
H          4.24454       -1.99658       -1.08875
