14

C          0.97815       -0.06906        0.06831
C          2.45565        0.00477       -0.01896
C          3.24458        1.07867       -0.03555
N          4.51664        0.61326       -0.13523
O          5.59987        1.27323        0.42402
C          4.49235       -0.76449       -0.01912
N          5.46721       -1.59480        0.10609
O          3.17908       -1.21611       -0.04087
H          0.52905        0.92921        0.09543
H          0.67404       -0.60259        0.97391
H          0.57305       -0.59866       -0.79929
H          3.00382        2.12654        0.02859
H          5.65105        2.08829       -0.10655
H          6.32097       -1.02302        0.12378
