21

C          1.04302        0.34946        0.21424
N          2.40655       -0.04495       -0.09704
C          2.99198       -0.99695        0.86817
C          2.26474       -2.34903        0.88599
C          2.46601       -3.09610       -0.42990
C          3.94929       -3.21393       -0.75730
O          4.60566       -1.94695       -0.75057
C          4.47192       -1.26441        0.50115
H          0.73761        1.15269       -0.46412
H          0.94786        0.72185        1.23834
H          0.34027       -0.47424        0.05848
H          2.99914        0.78195       -0.15659
H          2.96352       -0.55001        1.86974
H          1.19731       -2.23721        1.10279
H          2.67301       -2.95852        1.70406
H          1.95550       -2.55200       -1.23437
H          2.01191       -4.09074       -0.37146
H          4.07281       -3.64720       -1.75470
H          4.45293       -3.87901       -0.04627
H          5.02579       -0.32202        0.42584
H          4.96066       -1.86044        1.28223
