19

C          1.08348        0.31280        0.21010
C          2.58647        0.06841        0.22486
C          3.03600       -0.94329       -0.84051
O          2.52422       -0.63334       -2.13334
C          3.15921        0.45762       -2.78782
C          4.54481       -1.18319       -0.83414
N          5.36432       -0.43310       -0.16626
O          6.66940       -0.89643       -0.35796
H          0.80355        0.96981        1.04051
H          0.53026       -0.62533        0.31709
H          0.76941        0.79761       -0.71871
H          2.88243       -0.29287        1.21652
H          3.08949        1.03202        0.08410
H          2.59459       -1.91293       -0.58076
H          2.49695        0.80288       -3.58632
H          4.09546        0.12235       -3.24273
H          3.34770        1.29577       -2.11288
H          4.90482       -2.02963       -1.44612
H          7.19136       -0.28874        0.19963
