21

C          1.04659        0.99457       -1.16770
C          2.56597        1.04872       -1.17996
N          3.11691       -0.30088       -1.29653
C          4.58253       -0.30921       -1.30499
C          5.28591       -1.63036       -1.43865
C          5.33626       -0.63660       -2.57047
C          6.59489        0.09466       -2.89903
O          7.57539       -0.83238       -3.34142
H          0.63538        2.00348       -1.06249
H          0.67860        0.39196       -0.33020
H          0.65682        0.56606       -2.09663
H          2.91063        1.51374       -0.24893
H          2.90218        1.67274       -2.01545
H          2.73439       -0.75765       -2.12530
H          5.04448        0.37946       -0.59931
H          4.68697       -2.52412       -1.57518
H          6.16676       -1.78566       -0.82767
H          4.78328       -0.88923       -3.46872
H          6.99591        0.64734       -2.04376
H          6.41416        0.80843       -3.70853
H          7.74738       -1.43688       -2.60045
