19

C          0.95918        0.06534       -0.03770
C          2.47415       -0.00456       -0.04748
N          3.10410        1.04220        0.80209
C          4.11227        0.04291        1.22696
C          3.12605       -1.08766        0.85393
O          3.66052       -2.23599        0.15851
C          4.18222       -3.16932        1.01232
C          4.77829       -4.27100        0.55785
H          0.60611        0.94125       -0.59208
H          0.55570        0.12193        0.97950
H          0.53441       -0.82416       -0.51451
H          2.86559       -0.00493       -1.07415
H          2.51114        1.36891        1.56588
H          4.38562        0.09871        2.28489
H          5.02941        0.06756        0.62708
H          2.46448       -1.37855        1.68420
H          4.07141       -2.96699        2.06916
H          4.87595       -4.45157       -0.50809
H          5.17786       -5.01381        1.23967
