18

C          1.12710        0.04894       -0.25583
C          2.62330        0.07499       -0.31346
N          3.24683        1.19587       -0.48755
N          4.59729        1.06755       -0.48058
C          5.35138        2.30656       -0.68979
C          6.80963        1.98193       -0.77554
C          7.83521        3.08098       -0.86676
O          7.59009        2.37772        0.36040
H          0.78578       -0.98650       -0.18925
H          0.71382        0.51283       -1.15473
H          0.78873        0.59807        0.62666
H          3.14675       -0.88806       -0.18669
H          4.93193        0.63822        0.38648
H          5.14904        3.00981        0.12734
H          5.03638        2.77675       -1.62776
H          7.03343        1.04276       -1.26389
H          7.49536        4.10660       -0.94296
H          8.76358        2.87214       -1.38382
