15

C          0.82380        0.00501       -0.07217
C          2.34331        0.02759       -0.06716
C          2.93504       -0.01116        1.33031
O          2.83267       -1.10528       -0.83085
N          3.37152       -0.69089       -2.08901
C          3.40318        0.59122       -2.10721
C          2.86680        1.16613       -0.86873
O          2.86825        2.35863       -0.64122
H          0.44599       -0.89893        0.41808
H          0.43405       -0.00887       -1.09695
H          0.40748        0.88155        0.43486
H          2.62925       -0.92156        1.85740
H          2.62424        0.85615        1.92207
H          4.03047       -0.02149        1.29542
H          3.75182        1.25513       -2.90747
