17

C          1.66794       -0.12206        0.98011
C          2.35629        0.05995       -0.15084
N          2.94801        1.23243       -0.54811
C          2.98143        2.45872        0.20831
C          3.25758        3.51627       -0.83985
C          4.12721        2.79388       -1.85929
C          3.66996        1.35805       -1.74503
O          3.92260        0.48175       -2.55659
H          1.21605       -1.08750        1.18948
H          1.52148        0.65674        1.71758
H          2.46039       -0.76951       -0.85297
H          3.80017        2.39504        0.93451
H          2.03879        2.65291        0.72825
H          3.73254        4.41201       -0.43062
H          2.31480        3.82018       -1.31256
H          5.18843        2.85695       -1.60607
H          3.95108        3.17277       -2.86934
