17

C          3.61036       -0.30608        1.10071
C          2.67311       -0.07210       -0.05427
O          1.44991       -0.07240        0.07520
N          3.25125        0.13814       -1.26926
O          4.65594        0.15909       -1.35360
C          5.06695        0.46693       -2.68504
C          6.56207        0.47314       -2.68767
C          7.32347        1.52019       -3.03244
H          3.03408       -0.49012        2.01157
H          4.23721        0.57651        1.25575
H          4.23754       -1.18031        0.90323
H          2.67880        0.32185       -2.08399
H          4.65685        1.43815       -2.98533
H          4.70248       -0.30693       -3.36978
H          7.04462       -0.44762       -2.36700
H          6.89004        2.46558       -3.34359
H          8.40607        1.45352       -2.99181
