21

C          1.00626        0.08927        0.02255
C          2.53960        0.06580        0.06512
O          3.02690        1.21699       -0.64218
C          3.04079        0.15718        1.52277
O          2.61345        1.37908        2.12720
C          3.12316       -1.19967       -0.59550
C          2.78385       -1.33878       -2.08201
N          3.36872       -2.56620       -2.61988
H          0.60912        0.98358        0.51627
H          0.57939       -0.79097        0.51358
H          0.63455        0.13503       -1.00592
H          2.49652        1.97709       -0.34235
H          4.13588        0.13874        1.56790
H          2.65791       -0.67323        2.12469
H          3.21381        2.06987        1.79688
H          2.77553       -2.08855       -0.05261
H          4.21778       -1.17437       -0.50033
H          3.16365       -0.48226       -2.64786
H          1.70188       -1.38822       -2.23008
H          4.38503       -2.50720       -2.56546
H          3.14685       -2.63002       -3.61346
