18

C          1.86081        0.07955        0.34877
C          1.41887        1.28112       -0.46385
C         -0.04227        0.92499       -0.66740
C         -0.63582        0.50320        0.74848
C         -1.92465       -0.18880        0.48372
C         -1.64557       -0.96172       -0.57213
C         -0.21692       -0.65415       -0.84861
C          0.51666       -0.59000        0.56352
H          2.34863        0.36612        1.28416
H          2.53900       -0.56473       -0.22152
H          1.96969        1.37352       -1.40346
H          1.52551        2.21195        0.10373
H         -0.64145        1.58360       -1.29981
H         -0.58666        1.20794        1.57821
H         -2.85481       -0.08309        1.01706
H         -2.29135       -1.63873       -1.10161
H          0.26980       -1.16239       -1.67827
H          0.48746       -1.47860        1.19830
