16

C          0.85867       -0.14404        0.09142
C          2.38090       -0.06823        0.00450
N          2.93931       -1.36699       -0.36233
C          2.88172        0.93212       -0.97695
C          4.05703        1.64772       -0.91817
O          4.15919        2.47142       -1.98920
N          3.04295        2.31495       -2.79378
C          2.29926        1.39076       -2.18267
H          0.54632       -0.87157        0.84899
H          0.40541       -0.44108       -0.86151
H          0.43716        0.82847        0.36986
H          2.76313        0.19547        0.99845
H          2.56060       -1.66459       -1.26030
H          2.64222       -2.06841        0.31415
H          4.88237        1.68235       -0.22253
H          1.36547        1.09684       -2.64105
