15

C          0.95934       -0.08367       -0.03858
C          2.42542        0.09672       -0.01703
C          3.17128        1.25742       -0.01848
C          2.85590        2.69727       -0.03701
O          2.73782        3.09342       -1.39693
O          4.49453        0.90493       -0.02216
C          4.46925       -0.45542       -0.00642
N          3.27043       -0.99093       -0.00133
H          0.43499        0.87669       -0.04938
H          0.63265       -0.63988        0.84537
H          0.65945       -0.64415       -0.92943
H          3.64205        3.29156        0.43820
H          1.90993        2.90674        0.47004
H          3.56184        2.81859       -1.83730
H          5.42552       -0.95886       -0.00061
