17

C          1.11847        0.09404       -0.04421
C          2.60936        0.11589       -0.04058
C          3.37842       -0.65707       -1.07579
C          3.36209        0.84635       -1.12269
O          4.59606        1.47196       -0.72147
C          4.61899        2.81711       -0.66233
N          5.69446        3.44246       -0.32649
O          5.45209        4.82196       -0.35709
H          0.75223       -0.62601        0.69425
H          0.71290       -0.18871       -1.02135
H          0.72622        1.08078        0.21926
H          3.00981        0.15797        0.96622
H          2.83751       -1.18943       -1.84851
H          4.29700       -1.14573       -0.76714
H          2.79988        1.29280       -1.93808
H          3.66458        3.29972       -0.92685
H          6.31852        5.18842       -0.09517
