16

C          1.08228        0.13245       -0.08558
N          2.52287        0.03655       -0.05084
N          3.25832        1.16698       -0.02721
C          4.51708        0.73091        0.00081
C          4.59475       -0.66919        0.00011
C          3.28575       -1.10586       -0.04441
C          2.72303       -2.47187       -0.11607
O          1.97354       -2.68556        1.06744
H          0.78916        1.18277       -0.17205
H          0.68374       -0.28551        0.84156
H          0.71711       -0.42157       -0.95375
H          5.32347        1.45373        0.01651
H          5.48700       -1.28169        0.01044
H          3.50693       -3.23259       -0.17873
H          2.06228       -2.58752       -0.97995
H          2.61348       -2.70775        1.79998
