19

C          0.96533       -0.04497       -0.08238
C          2.48700       -0.06411       -0.06520
C          3.02530       -0.32474        1.33869
N          4.48715       -0.29402        1.31812
C          5.27062       -0.98860        2.21486
C          5.18910       -2.28622        2.53542
C          6.12500       -2.86514        3.51378
O          6.11786       -4.06363        3.77439
H          0.60077        0.12440       -1.10055
H          0.57749        0.75632        0.55546
H          0.55665       -0.99498        0.27116
H          2.86515        0.89341       -0.44299
H          2.84717       -0.84020       -0.75041
H          2.65154       -1.28577        1.70718
H          2.67190        0.45236        2.02708
H          4.84077        0.64385        1.12968
H          6.04635       -0.35638        2.64742
H          4.47782       -2.96011        2.07846
H          6.81784       -2.16510        4.00717
