20

C          1.82948       -1.26841        0.02487
C          2.53222        0.08397       -0.01832
N          3.71914        0.03831        0.83884
C          3.00123        0.46894       -1.39577
C          2.11087        0.76707       -2.58142
N          0.65871        0.63689       -2.54944
C          2.78893        1.89614       -1.84779
O          3.89385        2.53275       -2.50844
H          1.56886       -1.53739        1.05544
H          2.45374       -2.06722       -0.38940
H          0.89597       -1.24841       -0.54417
H          1.85356        0.84548        0.38338
H          4.32983       -0.72505        0.54424
H          3.44407       -0.18716        1.79236
H          3.94300       -0.00909       -1.64774
H          2.52942        0.50712       -3.55304
H          0.24469        1.06076       -1.72249
H          0.36747       -0.33929       -2.56760
H          2.16794        2.53777       -1.23020
H          4.34066        1.94558       -3.13923
