17

C          0.82752        0.02964       -0.24321
C          2.32642        0.01733       -0.07963
N          2.80863        0.03193        1.31510
C          3.14671       -0.76442       -1.07355
C          3.13664        0.73650       -1.14468
O          4.34511        1.39046       -0.70111
C          5.02749        2.11578       -1.61989
O          4.70690        2.31260       -2.78133
H          0.35696       -0.69308        0.43276
H          0.52423       -0.22549       -1.26492
H          0.43117        1.02376       -0.01268
H          2.40125       -0.73484        1.84851
H          2.52819        0.89378        1.78113
H          2.63995       -1.30693       -1.86264
H          4.05282       -1.24876       -0.72699
H          2.57725        1.19611       -1.95675
H          5.93798        2.51889       -1.15109
