21

C          1.02549       -0.03961        0.06061
C          2.52749       -0.00615        0.04410
C          3.20442        1.14865        0.07978
C          4.68840        1.26037        0.05906
C          5.48158       -0.03696       -0.09852
C          4.74107       -1.37086        0.09070
N          5.14652       -2.02020        1.34693
C          3.20295       -1.34302       -0.02054
H          0.59136        0.96334        0.07528
H          0.66540       -0.56684        0.94983
H          0.63807       -0.55091       -0.82909
H          2.65862        2.09203        0.12073
H          4.99898        1.76664        0.98014
H          4.96699        1.93254       -0.76152
H          6.34685        0.01960        0.57508
H          5.92894       -0.03962       -1.10111
H          5.10046       -2.04616       -0.69868
H          4.87786       -1.43623        2.13417
H          6.16506       -2.10002        1.37674
H          2.76727       -1.98612        0.75502
H          2.92136       -1.81746       -0.97392
