17

C          1.01417        0.50723       -0.37716
C          2.42597        0.01195       -0.10209
C          2.85654       -1.02967       -1.07922
C          3.51745       -0.82784       -2.27790
N          3.71233       -2.04616       -2.87832
C          3.19263       -3.03687       -2.08431
C          2.66664       -2.42612       -0.97558
O          2.06582       -3.07594        0.03000
H          0.72909        1.26974        0.35421
H          0.28885       -0.31145       -0.31651
H          0.93810        0.94845       -1.37697
H          2.47757       -0.39118        0.91644
H          3.12040        0.86006       -0.13789
H          3.85921        0.08107       -2.75497
H          4.16643       -2.18908       -3.77103
H          3.24683       -4.07239       -2.38868
H          2.06762       -4.03110       -0.14551
