19

C          2.25648       -1.57357       -0.49617
C          2.39671       -0.20773        0.11158
C          2.67201        0.96245       -0.81420
O          1.35761        0.69056       -0.32362
C          2.65183       -0.15807        1.61953
C          3.87242       -0.78244        2.25825
C          3.71939        0.70554        2.25605
N          3.44277        1.40232        3.51082
H          1.97147       -1.52569       -1.55270
H          1.48962       -2.14944        0.03213
H          3.20356       -2.11810       -0.42911
H          2.86754        0.76836       -1.86147
H          3.17601        1.83749       -0.42512
H          1.73309       -0.27888        2.19617
H          4.63620       -1.20492        1.61602
H          3.74115       -1.31790        3.19104
H          4.39473        1.24395        1.59539
H          2.76599        0.89427        4.07916
H          3.01505        2.31018        3.32423
