18

C          1.09093       -0.01352        0.04269
N          2.51466       -0.15797       -0.10619
C          3.16750       -1.11200       -0.84260
N          2.57346       -2.01972       -1.54133
C          4.69260       -1.10634       -0.79256
C          5.33908       -1.60422       -2.04448
C          5.27792       -0.82624       -3.33119
O          6.44652       -0.81353       -2.49853
H          0.87011        0.82371        0.71346
H          0.64931       -0.91713        0.47336
H          0.61977        0.19393       -0.92195
H          3.08022        0.46485        0.46359
H          1.56197       -1.90168       -1.47508
H          4.99417       -1.74216        0.04827
H          5.03240       -0.08894       -0.56313
H          5.41069       -2.68233       -2.09536
H          4.66375        0.06477       -3.36852
H          5.33012       -1.37895       -4.26060
