20

C          2.93338        1.15286       -0.82121
C          2.45369       -0.02860        0.01262
C          2.96294        0.03957        1.45751
C          2.43896       -1.14073        2.27021
O          4.40513       -0.02320        1.43048
C          5.08181        0.57875        2.43727
N          4.51703        1.23338        3.39476
N          5.38531        1.76208        4.28814
H          2.55165        1.07231       -1.84380
H          4.02604        1.18857       -0.87319
H          2.57802        2.09864       -0.39974
H          2.80558       -0.95076       -0.46545
H          1.35763       -0.04841        0.00555
H          2.62043        0.98184        1.90230
H          2.76021       -2.09161        1.83055
H          1.34623       -1.13082        2.32388
H          2.83554       -1.11920        3.29063
H          6.16759        0.43102        2.31048
H          4.86264        2.27464        5.00325
H          6.00394        2.45066        3.85331
