20

C          1.05067       -0.05502        0.04526
C          2.58171       -0.13168        0.01377
C          3.08100       -1.15361       -1.01569
C          3.13945        1.24784       -0.35295
O          3.11087       -0.44215        1.32766
C          2.85304       -1.64802        1.86766
N          3.49712       -2.06053        2.90567
N          3.14585       -3.31319        3.29262
H          0.64825        0.26700       -0.92191
H          0.71315        0.64886        0.81379
H          0.59644       -1.02128        0.28632
H          2.74590       -0.90063       -2.02861
H          2.72617       -2.16600       -0.79207
H          4.17485       -1.20246       -1.01303
H          2.80164        1.57139       -1.34605
H          4.23718        1.24313       -0.35167
H          2.83196        2.00632        0.37936
H          2.07406       -2.22894        1.35338
H          3.66947       -3.56771        4.13399
H          2.15824       -3.37268        3.54680
