21

C          2.71936       -2.65739       -0.15048
C          2.35542       -1.80291       -1.35538
C          2.97983       -0.40589       -1.31737
C          4.47886       -0.44237       -1.40054
C          5.31965        0.80780       -1.32618
N          4.70725        2.12908       -1.19387
C          5.30548       -0.16365       -0.17134
O          6.45197       -1.01338       -0.00535
H          2.21879       -3.62898       -0.21563
H          2.40666       -2.17629        0.78120
H          3.79712       -2.84282       -0.10031
H          1.26453       -1.69844       -1.39551
H          2.66015       -2.32405       -2.27054
H          2.64248        0.12240       -0.41800
H          2.60195        0.15968       -2.17768
H          4.82704       -1.20345       -2.09106
H          6.21457        0.81696       -1.94542
H          3.92381        2.12131       -0.54275
H          4.32844        2.44165       -2.08760
H          4.79128        0.13733        0.73623
H          7.09112       -0.91747       -0.73144
