14

C          1.03052        0.05968        0.05588
C          2.52229        0.07220        0.03681
C          3.24161        1.00865       -0.60195
C          4.66414        0.99231       -0.59103
N          5.45668        0.12690        0.02259
C          6.70866        0.56891       -0.28196
N          6.75806        1.65599       -1.04874
O          5.41069        1.94698       -1.26083
H          0.67422       -0.70604        0.75302
H          0.63114       -0.17697       -0.93529
H          0.63143        1.02292        0.38859
H          3.02430       -0.72639        0.58128
H          2.75567        1.80594       -1.15232
H          7.61153        0.08702        0.06464
