19

C          1.11459       -0.14405       -0.18659
C          2.62223       -0.04655       -0.01520
C          3.07201        0.99618        1.01895
C          2.54255        0.69542        2.43559
N          2.98451        1.69855        3.41034
O          4.52052        0.93166        1.07009
C          5.19810        2.01571        0.62715
O          4.73424        3.05303        0.18214
H          0.87415       -0.79716       -1.03190
H          0.67344        0.83837       -0.38025
H          0.63854       -0.57108        0.70124
H          3.07379        0.20431       -0.98343
H          3.02510       -1.03259        0.24810
H          2.72168        1.98749        0.70670
H          2.90413       -0.28441        2.76682
H          1.44925        0.67752        2.44311
H          4.00368        1.72769        3.41786
H          2.69549        1.41478        4.34492
H          6.27719        1.82031        0.72690
