17

C          1.26026        0.22021        0.33771
C          2.67726       -0.16462        0.03049
C          2.97397       -1.62051       -0.14786
C          4.27643       -1.79602        0.54260
O          5.42007       -1.24867       -0.12475
C          4.90310       -0.50125        0.98838
C          3.84240        0.56303        0.67825
N          3.46483        0.84309       -0.70088
H          0.76137       -0.54542        0.94036
H          0.69248        0.34168       -0.59070
H          1.20539        1.16291        0.89403
H          3.03153       -1.90081       -1.20438
H          2.21613       -2.24708        0.33421
H          4.39299       -2.69793        1.12072
H          5.47252       -0.46370        1.90452
H          3.64181        1.33720        1.40721
H          4.13926        0.39745       -1.32703
