21

C          3.52796        0.18559       -1.06475
C          2.52683       -0.09907        0.05249
O          1.73935       -1.21908       -0.34948
C          3.08852       -0.39798        1.43150
C          2.04679       -0.63538        2.49769
C          4.40804       -0.44711        1.71512
C          5.03799       -0.73282        3.04180
N          5.88946       -1.90607        2.91545
H          2.99978        0.36536       -2.00785
H          4.18404       -0.67469       -1.24154
H          4.14243        1.06375       -0.84328
H          1.85387        0.76318        0.12963
H          2.31996       -1.99830       -0.29379
H          1.03074       -0.50710        2.11017
H          2.16613        0.07571        3.32156
H          2.12187       -1.65638        2.88651
H          5.13648       -0.26066        0.92845
H          4.30455       -0.89911        3.83534
H          5.64887        0.12708        3.33597
H          5.30132       -2.71498        2.71866
H          6.32868       -2.09324        3.81506
