19

C          4.88970       -2.71128       -0.00007
C          4.50111       -1.44232        0.13196
O          4.90859       -0.67731        1.18876
C          4.49227        0.68589        1.07222
C          5.08737        1.49611        2.22352
C          6.58855        1.51990        2.18154
C          7.33996        2.17359        1.04977
N          7.30968        2.77611        2.37850
H          4.55756       -3.31367       -0.83814
H          5.54486       -3.16853        0.73313
H          3.84474       -0.96234       -0.58146
H          3.39788        0.73466        1.12819
H          4.81793        1.10250        0.11069
H          4.78149        1.05329        3.17960
H          4.67870        2.51311        2.19030
H          7.02996        0.63640        2.62985
H          6.79493        2.68604        0.26828
H          8.28041        1.72724        0.74892
H          6.67994        3.57909        2.39769
