23

C          0.63928       -0.13763        0.33440
C          2.12617       -0.09112        0.00339
C          3.00260        0.91011        0.81030
C          2.52220        2.35615        0.60170
N          2.92478        0.59288        2.24012
C          4.46068        0.72767        0.30407
C          5.53229        1.60556        0.94228
O          6.79984        1.32060        0.35302
H          0.14861       -0.88535       -0.29904
H          0.14959        0.82120        0.14496
H          0.46130       -0.42651        1.37405
H          2.22158        0.13656       -1.06687
H          2.52639       -1.10567        0.13400
H          1.47865        2.48968        0.90707
H          2.60080        2.64872       -0.45153
H          3.11047        3.07067        1.18865
H          1.95924        0.65054        2.56432
H          3.43502        1.28316        2.79186
H          4.76464       -0.32143        0.42956
H          4.48632        0.89635       -0.78186
H          5.62032        1.41213        2.01477
H          5.33177        2.66952        0.79446
H          6.71872        1.45294       -0.60687
