17

C          1.05672       -0.07841        0.01865
C          2.57397       -0.10606        0.04712
C          3.25274        0.95016        0.95164
C          4.30885       -0.11088        1.31441
C          3.28084       -1.20891        0.90978
O          2.50767       -1.75752        2.00893
C          3.85184       -2.29755        0.12495
N          4.32278       -3.14012       -0.52199
H          0.70018        0.78186       -0.55707
H          0.63022       -0.00744        1.02429
H          0.66423       -0.98471       -0.45308
H          2.95990       -0.06494       -0.98319
H          2.64897        1.27331        1.80769
H          3.63436        1.83651        0.43758
H          4.61469       -0.10950        2.36491
H          5.20949       -0.06536        0.68992
H          2.19798       -0.99361        2.52321
