16

C          1.00804       -0.01804        0.01038
C          2.48410        0.10847        0.01308
C          3.28922        1.17745        0.01534
C          2.96368        2.62571        0.01577
O          4.67127        0.83264        0.01851
C          4.61356       -0.54785        0.01851
N          5.68444       -1.25174        0.02250
N          3.32411       -0.96208        0.01436
H          0.51173        0.95642        0.01062
H          0.67076       -0.56525        0.89646
H          0.67375       -0.56333       -0.87802
H          1.88550        2.80751        0.01548
H          3.38633        3.10802       -0.87108
H          3.38561        3.10726        0.90339
H          6.46788       -0.58974        0.02507
H          3.04325       -1.92779        0.01609
