15

C          1.08447       -0.08790       -0.01694
C          2.57651       -0.08002        0.01723
C          3.30973       -1.17828        0.26141
C          4.73254       -1.14058        0.28136
N          5.51187       -0.08787        0.05892
C          6.79569       -0.54806        0.18437
C          6.77706       -1.88072        0.48765
O          5.47918       -2.27634        0.55376
H          0.71639        0.87159       -0.39396
H          0.67521       -0.23457        0.98689
H          0.70833       -0.87198       -0.68129
H          3.06804        0.87254       -0.17196
H          2.83603       -2.13421        0.45721
H          7.64957        0.10012        0.05190
H          7.52443       -2.63746        0.67210
