23

C          0.86127       -0.25944        0.23040
C          2.33491        0.09304       -0.00884
C          2.48186        1.61730       -0.05954
C          3.26944       -0.55847        1.04714
O          3.07274       -1.97542        1.04562
C          4.75668       -0.25396        0.77874
C          5.73729       -0.77850        1.83321
N          5.86243       -2.22980        1.85736
H          0.23112        0.18531       -0.55224
H          0.51107        0.11978        1.19519
H          0.69504       -1.33944        0.20175
H          2.59628       -0.31000       -0.99619
H          2.35905        2.05902        0.93334
H          1.73088        2.06063       -0.72361
H          3.45965        1.91012       -0.44986
H          2.99865       -0.19999        2.04717
H          3.11984       -2.28128        0.12341
H          5.03968       -0.65869       -0.20190
H          4.90429        0.82921        0.73511
H          5.44363       -0.42618        2.82784
H          6.72868       -0.35822        1.62912
H          4.91753       -2.62837        1.91744
H          6.23937       -2.55927        0.96859
