14

C          1.01974       -0.00029        0.11557
C          2.53509       -0.01341        0.05013
N          3.06311       -1.19041        0.02745
O          4.41574       -1.42104       -0.21134
C          5.40029       -0.55686        0.13076
N          5.48203        0.72377        0.28129
C          4.44474        1.56907        0.09518
C          3.14611        1.32062       -0.02334
H          0.61473       -1.01734        0.12725
H          0.62511        0.51177       -0.77275
H          0.68519        0.52700        1.01183
H          6.33174       -1.13991        0.21038
H          4.74761        2.61386        0.06742
H          2.45885        2.15382       -0.11010
