20

C          0.96888       -0.00109        0.01031
C          2.48858        0.10221       -0.03558
C          2.95567        1.12202       -1.06853
O          2.48685        2.41859       -0.71808
C          4.47074        1.12723       -1.18378
N          5.18741        1.88199       -0.40853
N          6.51066        1.83856       -0.68097
C          7.38145        2.63840        0.16995
H          0.65943       -0.75251        0.74320
H          0.56735       -0.29339       -0.96552
H          0.51346        0.95301        0.29536
H          2.91282       -0.88385       -0.26134
H          2.84619        0.38698        0.96181
H          2.55312        0.87648       -2.05720
H          3.14645        2.77609       -0.08936
H          4.91140        0.45493       -1.94239
H          6.88655        0.89136       -0.76499
H          6.88149        3.55005        0.51434
H          8.27036        2.93664       -0.39313
H          7.70099        2.06456        1.04528
