15

C          1.01998       -0.09790       -0.08900
C          2.53631       -0.09074        0.03873
O          2.88688        0.74872        1.12457
C          4.29625        0.83709        1.22986
C          4.67435        1.75118        2.38393
N          4.98801        2.50948        3.34134
C          3.04297       -1.49872        0.30574
C          3.47759       -2.70648        0.53478
H          0.65092        0.91100       -0.30399
H          0.54513       -0.41468        0.84681
H          0.68733       -0.76901       -0.88776
H          2.97315        0.29063       -0.89247
H          4.72212        1.25138        0.30838
H          4.75830       -0.13372        1.43628
H          3.82469       -3.69617        0.72624
