16

C          0.86761        0.05493       -0.27577
C          2.34091        0.07659        0.05259
C          2.62351        0.07371        1.54392
O          4.00968       -0.03771        1.82889
N          3.25971       -0.69364       -0.80190
C          3.24845        0.77206       -0.94977
C          4.39611        1.55050       -0.56257
N          5.32064        2.20678       -0.31386
H          0.33509       -0.65790        0.36111
H          0.67863       -0.22498       -1.31848
H          0.43723        1.04840       -0.11162
H          2.12919       -0.78499        2.01284
H          2.23994        0.98524        2.01217
H          4.36339       -0.69317        1.19810
H          2.76906       -1.12855       -1.58651
H          2.78604        1.12968       -1.86696
