23

C          0.91597        0.13686       -0.13468
C          2.42471        0.05742        0.05513
C          2.96440        1.16822        0.95395
C          4.38682        0.70797        1.22375
C          4.26473       -0.79856        1.44034
C          2.98048       -1.24385        0.69688
C          2.01628       -1.92215        1.68083
N          3.29959       -2.22900       -0.34153
H          0.64538        1.06665       -0.64645
H          0.38310        0.12628        0.82179
H          0.55218       -0.69789       -0.74216
H          2.88291        0.19268       -0.93623
H          2.39785        1.23494        1.89008
H          2.93858        2.14700        0.46527
H          4.83234        1.21515        2.08449
H          5.01951        0.90724        0.35020
H          4.19087       -1.00790        2.51499
H          5.16835       -1.30811        1.08616
H          1.70913       -1.23314        2.47529
H          2.48705       -2.78838        2.16137
H          1.10889       -2.28263        1.18206
H          3.97688       -1.83762       -0.99560
H          2.46473       -2.43587       -0.88880
