16

C          1.01110        0.04071        0.08722
C          2.51023       -0.12812       -0.15379
O          2.78405       -1.46950       -0.52926
C          2.60090       -1.66431       -1.92364
O          3.45797       -0.82592       -2.70503
N          3.15227        0.53462       -2.49791
C          2.98338        0.90998       -1.18371
N          3.14699        2.14371       -0.81379
H          0.64285       -0.72836        0.77402
H          0.44211       -0.06166       -0.84323
H          0.78459        1.02726        0.50429
H          3.03798        0.05938        0.78664
H          1.55311       -1.53201       -2.21656
H          2.87322       -2.70056       -2.14810
H          2.41151        0.85996       -3.11488
H          3.49374        2.67183       -1.62264
