16

C          1.03402       -0.02144        0.11779
C          2.53569       -0.01626        0.10855
O          3.19706        0.93896       -0.59941
C          2.61220        2.16406       -0.93914
C          2.94109        2.80694       -2.05904
N          3.16645       -0.95048        0.75729
N          4.55510       -0.83789        0.66715
C          5.13391       -1.73048        1.39393
H          0.58857        0.72506       -0.53987
H          0.68148        0.14616        1.13977
H          0.68531       -1.00375       -0.21752
H          1.94947        2.55559       -0.18078
H          3.64885        2.37232       -2.75688
H          2.52508        3.78065       -2.29070
H          6.23292       -1.77575        1.43094
H          4.58131       -2.47232        1.99476
