12

C          0.98932        0.01522       -0.06043
C          2.47980        0.16230       -0.05860
N          3.04023        1.32370       -0.05823
C          4.40201        1.29563       -0.05663
O          5.10843        2.29626       -0.05703
C          5.12216       -0.00940       -0.05413
N          4.49522       -1.13809       -0.05462
O          3.07965       -1.06861       -0.05772
H          0.51018        0.99829       -0.05967
H          0.67428       -0.53186        0.83227
H          0.67627       -0.52958       -0.95522
H          6.22077        0.04867       -0.05179
