16

C          0.88743       -0.03231       -0.01440
C          2.22866       -0.07241       -0.06234
N          2.93538       -0.17421       -1.24218
C          2.48719       -0.24517       -2.52970
O          3.24360       -0.32668       -3.49039
C          3.06279        0.01378        1.15479
C          2.94736       -1.02124        2.24350
N          4.09988       -1.00411        1.35044
H          0.24533       -0.08605       -0.88354
H          0.37822        0.06185        0.94104
H          3.94885       -0.18051       -1.16637
H          1.39615       -0.22396       -2.65229
H          3.33878        1.02140        1.45085
H          2.26080       -1.85081        2.13019
H          3.13080       -0.70553        3.26325
H          4.01493       -1.75341        0.66001
