14

C          1.01418       -0.10063        0.02101
N          2.45766       -0.08568        0.27024
C          3.05203        1.17067       -0.18110
C          4.54547        1.13388        0.02992
O          5.20603        2.16734        0.13649
O          5.15882       -0.07291       -0.00160
C          4.38326       -1.16997       -0.11092
N          3.09879       -1.23609       -0.01397
H          0.55209        0.86831        0.23985
H          0.53239       -0.84073        0.66799
H          0.79781       -0.36061       -1.02028
H          2.65566        1.99713        0.41602
H          2.86462        1.35365       -1.24388
H          5.00023       -2.05940       -0.28495
