21

C          0.92085        0.07536       -0.00531
C          2.45500        0.06069       -0.02819
C          2.97445       -1.15678       -0.81573
C          3.22555       -0.58726       -2.17894
C          3.46576       -1.45170       -3.36305
C          3.25244        0.75259       -2.14894
C          3.00949        1.29378       -0.77681
N          4.27338        1.77247       -0.23186
H          0.53725       -0.80596        0.51965
H          0.49611        0.07773       -1.01488
H          0.55284        0.96344        0.51907
H          2.80011        0.02209        1.01260
H          2.24781       -1.97494       -0.83700
H          3.91324       -1.52959       -0.39086
H          3.46460       -2.50969       -3.08216
H          4.43670       -1.22892       -3.81644
H          2.68133       -1.30398       -4.11205
H          3.45589        1.38746       -3.00074
H          2.28634        2.11579       -0.80153
H          4.94369        1.00463       -0.22338
H          4.13819        2.03391        0.74271
