10

O         -1.03475       -1.34445       -0.01078
N         -2.09853       -0.39228       -0.01006
C         -1.49948        0.82234       -0.00470
C         -0.14113        0.66339       -0.00214
C          0.10846       -0.64067       -0.00586
O          1.43077       -0.87258       -0.00362
N          2.06775        0.40511        0.00204
C          1.06251        1.31268        0.00274
H         -2.11719        1.70860       -0.00319
H          1.30930        2.36440        0.00676
