16

C          1.16776       -0.06539       -0.14182
C          2.67789        0.00206       -0.07050
O          3.32267       -0.73107       -0.82985
N          3.27208        0.88745        0.84672
C          2.49836        1.69758        1.68908
C          2.91955        2.58023        2.60558
C          4.66186        0.94160        0.90409
N          5.49747        0.25735        0.19645
H          0.88070       -0.79884       -0.90332
H          0.75285        0.90059       -0.44060
H          0.75171       -0.39944        0.81201
H          1.42002        1.60531        1.59419
H          3.95553        2.79912        2.83226
H          2.19173        3.14080        3.18791
H          5.08610        1.64379        1.63081
H          4.96983       -0.36251       -0.44508
