17

C          1.02880        0.00532        0.00038
C          2.54226       -0.02362       -0.12407
C          3.34150        1.00732       -1.05012
C          2.87956        0.04250       -2.22309
C          3.31303       -1.01797       -1.12118
C          4.88985       -0.69804       -0.87336
O          5.90269       -1.35461       -0.76540
N          4.78207        0.67998       -0.83431
H          0.72463        0.79264        0.69805
H          0.66405       -0.94819        0.39575
H          0.51204        0.19417       -0.94282
H          2.94398       -0.07573        0.89937
H          3.07272        2.06140       -1.06337
H          3.49841        0.06382       -3.12635
H          1.83183        0.06242       -2.52907
H          2.98949       -2.05091       -1.20901
H          5.58202        1.29013       -0.75360
