21

C          1.08477       -0.06550        0.12839
C          2.59142       -0.24332       -0.09099
C          2.89065       -1.65733       -0.53334
C          3.79630       -1.96585       -1.46975
C          4.63054       -0.94492       -2.17804
C          4.59377        0.43942       -1.52149
C          3.19828        0.85083       -1.02093
N          2.33314        1.20086       -2.15564
H          0.71598       -0.76426        0.88836
H          0.51268       -0.25542       -0.78682
H          0.85772        0.94869        0.47241
H          3.06767       -0.12749        0.89287
H          2.35442       -2.46097       -0.03497
H          3.95884       -3.01127       -1.73282
H          5.67152       -1.29017       -2.20541
H          4.29145       -0.88099       -3.21804
H          4.98439        1.18259       -2.22969
H          5.28507        0.44533       -0.66917
H          3.30748        1.76566       -0.42553
H          2.20314        0.38234       -2.74853
H          2.78443        1.91131       -2.72710
