15

C          1.06003       -0.03215        0.04610
C          2.51858        0.17413        0.03911
C          3.33122        1.27879        0.10093
C          4.64176        0.75090        0.05497
C          5.93305        1.48691        0.07960
O          6.39827        1.79136       -1.23414
N          4.62490       -0.58486       -0.04934
O          3.28758       -0.94344       -0.04835
H          0.52828        0.92447        0.04870
H          0.75724       -0.59232        0.93602
H          0.74612       -0.59313       -0.83922
H          3.02920        2.31334        0.16622
H          6.70815        0.90272        0.58809
H          5.82501        2.43136        0.62294
H          6.40905        0.94089       -1.71050
