14

C          1.45302       -0.51763       -0.13745
C          2.83979        0.09298       -0.11825
O          2.92804        1.25490       -0.99347
C          3.84629        0.62797       -1.74887
C          5.12524        0.92271       -2.10116
N          5.83261       -0.16631       -1.63590
N          5.09330       -1.00422       -0.85190
C          3.85451       -0.53210       -1.00794
H          0.79567        0.02383        0.55157
H          1.48121       -1.56281        0.18852
H          0.99455       -0.48213       -1.13150
H          3.20442        0.28228        0.89845
H          5.62005        1.80771       -2.47217
H          6.83503       -0.31622       -1.67420
