16

O          1.04668        0.09354        0.04662
C          2.47317       -0.05698       -0.00141
C          2.97984       -0.87322        1.21534
O          2.52179       -0.23243        2.40478
C          2.50173       -2.30965        1.17686
C          1.77803       -2.94310        2.11330
C          4.49984       -0.87322        1.21534
C          5.80369       -0.87322        1.21534
H          0.78701        0.54191       -0.77751
H          2.89464        0.95463        0.01938
H          2.74875       -0.53046       -0.95053
H          1.58358       -0.03841        2.21664
H          2.78012       -2.87004        0.28688
H          1.47225       -2.44873        3.03045
H          1.48372       -3.97869        1.98234
H          6.86896       -0.87417        1.23090
