19

C          1.03887       -0.11489        0.07291
C          2.55371       -0.11323        0.11883
C          3.14245        1.06002        0.90616
C          4.48678        0.52351        1.36138
N          4.20342       -0.86803        1.60120
C          5.14901       -1.76314        2.22105
C          3.12101       -1.31661        0.85179
O          2.74127       -2.46907        0.74574
H          0.66125        0.80204       -0.39013
H          0.60945       -0.19631        1.07732
H          0.67114       -0.96739       -0.50798
H          2.96326       -0.12145       -0.89907
H          2.51837        1.28493        1.78129
H          3.23218        1.97224        0.31076
H          4.83931        1.00861        2.27597
H          5.24588        0.59984        0.57548
H          5.94282       -1.19465        2.71321
H          5.57340       -2.42345        1.45979
H          4.61968       -2.37292        2.95896
