23

C          1.07095       -0.00653       -0.02119
C          2.59226        0.02314       -0.01934
C          3.16308        1.16888        0.80932
C          4.57085        0.68269        1.15522
C          5.11349        1.36563        2.41266
C          5.54410        0.92786       -0.01129
C          4.33291       -0.81575        1.37559
N          3.18254       -1.20174        0.54133
H          0.67137        0.91211       -0.46412
H          0.66624       -0.09496        0.99291
H          0.69789       -0.85215       -0.60905
H          2.93353        0.11456       -1.05800
H          2.57045        1.31503        1.72203
H          3.16415        2.11370        0.25566
H          5.21841        2.44540        2.25965
H          6.09591        0.96443        2.68522
H          4.44657        1.21631        3.26903
H          5.63816        1.99925       -0.22222
H          5.22329        0.43549       -0.93477
H          6.54340        0.54741        0.22933
H          4.08928       -1.02449        2.42452
H          5.20815       -1.42040        1.11629
H          2.50226       -1.69250        1.12013
