19

C          0.93221       -0.04133        0.00785
C          2.44465       -0.17049        0.00782
N          3.10959        0.85370        0.84802
C          4.11270       -0.14268        1.26663
C          3.14146       -1.28295        0.85822
C          2.35618       -1.83745        2.05121
C          3.76528       -2.43704        0.00534
O          3.16487       -3.39700       -0.47903
H          0.62003        0.83635       -0.56802
H          0.51944        0.05784        1.01691
H          0.47589       -0.92183       -0.45656
H          2.81269       -0.14649       -1.02853
H          2.53181        1.19564        1.61769
H          4.38626       -0.09347        2.32603
H          5.03696       -0.08956        0.67854
H          1.94524       -1.04157        2.68160
H          3.00268       -2.45649        2.68277
H          1.52167       -2.46055        1.71194
H          4.85341       -2.35255       -0.15498
