15

C          1.13611        0.29688        0.28416
C          2.44328        0.16635        0.05029
N          3.04751       -0.56398       -0.96213
C          2.31319       -1.36003       -1.94049
C          2.50890       -0.88847       -3.37487
O          2.95231        0.20667       -3.71612
C          4.43498       -0.68405       -1.00316
O          5.06250       -1.42283       -1.75545
H          0.80007        0.87806        1.14341
H          0.35500       -0.14402       -0.31893
H          3.12835        0.66256        0.73755
H          1.23842       -1.36984       -1.75242
H          2.67194       -2.39380       -1.88102
H          2.14971       -1.60055       -4.13646
H          4.94853       -0.05311       -0.25912
