16

C          1.21136       -0.10121        0.02121
C          2.70021        0.08092        0.03716
O          3.24910        1.16464       -0.11615
O          3.30197       -1.13953        0.23748
N          4.70152       -0.98747        0.23602
C          5.26110       -2.14486        0.37113
C          6.76449       -2.27310        0.38021
N          7.18630       -2.80666        1.67566
H          0.73148        0.87198       -0.12106
H          0.87551       -0.51601        0.97474
H          0.92493       -0.75345       -0.80759
H          4.67584       -3.07582        0.47616
H          7.22993       -1.29954        0.19892
H          7.05327       -2.96426       -0.41647
H          6.98156       -2.11116        2.39587
H          8.20232       -2.90064        1.67392
