16

C          2.60907        0.30051        1.10188
N          2.42964       -0.07796       -0.29879
N          2.97622       -1.33171       -0.54203
C          2.23170       -2.46659       -0.59032
C          3.01587       -3.50323       -0.90078
C          4.44318       -3.05586       -1.10299
C          4.31877       -1.55422       -0.87216
O          5.21436       -0.72785       -0.96363
H          2.21711        1.30989        1.25935
H          3.66594        0.30070        1.38980
H          2.06063       -0.37625        1.76555
H          2.95794        0.58716       -0.87224
H          1.16910       -2.45665       -0.39612
H          2.68288       -4.52475       -1.00511
H          4.78373       -3.25517       -2.12126
H          5.10999       -3.49830       -0.35943
