20

C          1.39028        0.27102        0.47088
C          2.78404       -0.15098        0.08662
C          2.95264       -1.62006       -0.26208
N          4.06746       -2.23943        0.46621
C          5.31570       -1.50964        0.24227
C          5.27036       -0.12497        0.89280
C          3.98279        0.60046        0.64235
N          3.53595        0.85153       -0.71567
H          0.90433       -0.48720        1.09360
H          0.78014        0.41115       -0.42851
H          1.38619        1.21132        1.03287
H          3.08990       -1.73996       -1.34391
H          2.04424       -2.17518       -0.00269
H          4.17423       -3.19864        0.14241
H          5.51865       -1.42959       -0.83314
H          6.14887       -2.07676        0.67351
H          6.11070        0.47836        0.52998
H          5.40227       -0.23485        1.97631
H          3.81618        1.40029        1.35502
H          4.13315        0.38797       -1.40025
