14

C          1.32729       -0.18178       -0.70142
C          2.35589       -0.04997        0.14228
N          2.95297       -1.07876        0.81686
C          4.00954       -0.83202        1.67074
C          4.40548       -1.99019        2.21673
N          3.61984       -3.00016        1.72842
C          2.67057       -2.47339        0.82496
O          1.82972       -3.12257        0.22795
H          0.90385        0.68644       -1.19552
H          0.87704       -1.14356       -0.92556
H          2.76053        0.94341        0.32193
H          4.41378        0.15490        1.83871
H          5.19721       -2.17305        2.92685
H          3.67220       -3.98140        1.95484
