14

C          1.16536        0.18578        0.06214
N          2.55419        0.01904        0.38157
O          3.38460        1.11547        0.11262
C          4.65854        0.59870       -0.05588
O          5.66167        1.28171       -0.16821
N          4.59380       -0.78159       -0.10111
C          3.34224       -1.06552        0.12289
C          2.82512       -2.46782        0.07630
H          0.88381        1.24487        0.06219
H          0.55408       -0.31609        0.82050
H          0.91404       -0.23594       -0.91864
H          3.65480       -3.17873        0.06350
H          2.22541       -2.60419       -0.82730
H          2.20067       -2.65907        0.95327
