20

C          0.86379        0.15754       -0.64166
C          2.12546        0.08187        0.16536
C          2.42134       -1.26898        0.94662
C          3.81500       -0.52152        1.11101
C          4.96287       -1.31722        1.65946
C          3.58048       -0.20474       -0.44441
C          3.47774        0.77075        1.80022
C          2.35770        1.16480        1.18063
H          0.81350       -0.65506       -1.37350
H          0.78516        1.10401       -1.18484
H         -0.01562        0.06719        0.00666
H          2.42379       -2.18965        0.34831
H          1.85062       -1.44507        1.86349
H          4.92514       -2.35503        1.31034
H          4.93460       -1.34689        2.75496
H          5.92685       -0.89772        1.35707
H          3.67420       -1.04216       -1.14545
H          4.11597        0.65987       -0.85359
H          4.01916        1.26126        2.59427
H          1.77156        2.05567        1.34775
