21

C          0.51307       -0.04430       -1.22353
C          1.77356       -0.49236       -0.57037
C          3.15430       -0.15401       -1.07029
C          2.60536        0.55441        0.13631
C          2.99176        0.35144        1.57677
C          4.41439        0.64221        2.07347
C          3.74137        1.40989        3.21677
N          2.50679        1.48400        2.41064
H          0.49179       -0.33075       -2.27828
H          0.37899        1.04039       -1.15350
H         -0.34098       -0.51034       -0.72289
H          1.66735       -1.48042       -0.13497
H          3.94851       -0.87716       -0.92328
H          3.23913        0.40471       -1.99688
H          2.39249        1.60340       -0.05064
H          2.62584       -0.61359        1.95533
H          5.01968        1.26010        1.40282
H          4.99281       -0.23375        2.38238
H          4.18351        2.38239        3.45094
H          3.61263        0.84303        4.14112
H          2.41766        2.36549        1.90560
