18

C          1.01891        0.03526        0.32572
N          2.36226        0.04930       -0.22854
N          3.12450       -1.14438       -0.13951
C          4.14702       -1.21910       -1.18009
C          5.09253       -0.04448       -0.99941
C          4.33816        1.26860       -1.09229
C          2.99738        1.28785       -0.38765
O          2.45820        2.35769       -0.09699
H          0.61677       -0.98101        0.34159
H          0.37664        0.66005       -0.30369
H          1.03468        0.45224        1.33709
H          2.49858       -1.94472       -0.24248
H          3.68731       -1.20947       -2.17417
H          4.70027       -2.15668       -1.07716
H          5.87678       -0.07418       -1.76332
H          5.59456       -0.11487       -0.02512
H          4.13438        1.49977       -2.14643
H          4.95891        2.07565       -0.68850
