18

C          1.18932        0.00491        0.00267
C          2.66786       -0.02484       -0.24303
N          3.26158       -1.13097       -0.57290
N          4.61086       -1.19382       -0.71807
C          5.47540       -0.42045        0.16671
C          5.62531        0.99546       -0.36565
C          4.31452        1.57623       -0.86768
O          3.20644        1.21097       -0.04029
H          0.75201       -0.97704       -0.19883
H          0.72594        0.73771       -0.66396
H          0.99255        0.27603        1.04287
H          4.89772       -2.17590       -0.70305
H          6.46834       -0.88478        0.21178
H          5.08667       -0.42201        1.19229
H          6.35493        1.02291       -1.18491
H          6.02910        1.62708        0.43453
H          4.11128        1.27474       -1.90272
H          4.37424        2.67012       -0.87197
