20

C          1.07804       -0.02846        0.01839
C          2.59737       -0.07600        0.06317
C          3.09242       -1.29302        0.84255
C          4.61748       -1.34581        0.89486
C          5.11764       -2.51901        1.71463
O          4.38993       -3.31516        2.30260
N          6.50603       -2.59593        1.75310
N          7.11477       -3.68202        2.41892
H          0.74127        0.85105       -0.53912
H          0.65799        0.02832        1.02806
H          0.67180       -0.91873       -0.47261
H          2.97227        0.84297        0.52857
H          2.98771       -0.10353       -0.96112
H          2.70952       -2.21072        0.37818
H          2.68833       -1.26436        1.86235
H          5.00871       -0.42606        1.34585
H          5.02408       -1.43141       -0.11964
H          7.06819       -2.03464        1.11648
H          6.37185       -4.37554        2.59352
H          7.37024       -3.36717        3.35930
