19

C          0.90745       -0.43489        0.51384
C          2.31090       -0.48992       -0.07971
C          2.63863       -1.62752       -1.17449
C          3.46711       -2.44068       -2.22396
C          2.17555       -0.37155       -2.11707
O          1.86103       -0.18831       -3.27064
N          2.46916        0.52870       -1.13868
C          3.70079        1.26025       -1.30075
H          0.79827       -1.17009        1.31770
H          0.13247       -0.63772       -0.23369
H          0.70971        0.55498        0.94239
H          3.05643       -0.37081        0.71911
H          3.60704       -1.73578       -0.63897
H          4.31884       -1.84871       -2.60145
H          2.84451       -2.70394       -3.08422
H          3.85775       -3.37045       -1.80336
H          3.77221        1.62984       -2.32909
H          4.55253        0.58981       -1.12584
H          3.72085        2.08455       -0.59298
