14

C          1.07796        0.10906       -0.03173
N          2.52335        0.13149       -0.17005
O          3.10149        1.19737        0.54017
C          4.43292        1.35410        0.05699
C          5.24287        0.05562        0.10627
O          6.47185        0.09275        0.11642
N          4.54382       -1.13349        0.07342
C          3.26718       -1.02318       -0.06455
H          0.66504        1.11692       -0.14476
H          0.78673       -0.28015        0.94844
H          0.63405       -0.52333       -0.80760
H          4.92876        2.09206        0.69442
H          4.41418        1.72966       -0.97186
H          2.65348       -1.93753       -0.12724
