18

C          1.01123        0.05681        0.02790
C          2.53226        0.05218        0.09593
C          3.08926        1.26679        0.83730
C          4.30821        0.71273        1.50939
O          5.19980        1.37588        2.01327
N          4.17176       -0.66505        1.50676
C          5.12343       -1.59004        2.07524
N          3.04395       -1.12993        0.81188
H          0.65165        0.95360       -0.48733
H          0.56248        0.04150        1.02750
H          0.64313       -0.81762       -0.51965
H          2.93671        0.03464       -0.92400
H          2.40911        1.64000        1.60958
H          3.36285        2.06887        0.14724
H          5.98273       -1.05331        2.48571
H          5.46382       -2.28190        1.29960
H          4.63124       -2.14838        2.87667
H          2.35931       -1.43448        1.50885
