17

C          1.58270        0.20125        0.74346
N          2.52955        0.27451       -0.35820
C          3.25758       -1.02018       -0.70106
C          4.04494       -0.55541       -1.88515
C          3.12493        0.13233       -2.58066
C          1.90556       -0.01974       -1.72422
C          1.89931       -1.55974       -1.32019
O          0.87578       -2.09661       -0.44522
H          1.85967       -0.55773        1.48332
H          0.53948        0.06172        0.43653
H          1.60164        1.16433        1.26643
H          3.77073       -1.56187        0.09221
H          5.08823       -0.71111       -2.09757
H          3.22754        0.67966       -3.50374
H          0.99648        0.50717       -2.00406
H          2.02209       -2.25253       -2.16216
H          1.34087       -2.76172        0.08931
