17

C          1.00598        0.03699        0.08291
C          2.48931       -0.02269        0.08602
C          3.36976        1.04368        0.07466
N          4.63840        0.54297        0.07921
O          5.79579        1.30670        0.06071
C          4.61775       -0.82186        0.09641
C          5.84589       -1.65482        0.10364
C          3.28814       -1.20188        0.09856
H          0.64978        1.07200        0.08096
H          0.60240       -0.45983        0.97081
H          0.60607       -0.46190       -0.80563
H          3.18289        2.10780        0.06182
H          5.42354        2.19748        0.14306
H          6.76110       -1.05607        0.11519
H          5.87391       -2.29356       -0.78509
H          5.85756       -2.30044        0.98788
H          2.92858       -2.22398        0.10778
