21

C          1.03015        0.19854        0.26601
C          2.53382        0.04791        0.00711
C          2.85096       -1.35770       -0.54447
C          2.60436       -1.22979       -2.01855
N          3.65064       -0.77018       -2.91284
C          2.72362        0.22315       -2.38759
C          3.00109        1.00516       -1.12194
C          4.47514        1.38546       -0.98098
H          0.69843       -0.50986        1.03205
H          0.43535        0.01622       -0.63614
H          0.79833        1.20898        0.61808
H          3.06331        0.23215        0.94886
H          2.22481       -2.13238       -0.08887
H          3.89913       -1.61530       -0.35254
H          1.78338       -1.81295       -2.41009
H          3.42810       -0.99526       -3.88388
H          1.98902        0.66220       -3.04834
H          2.40710        1.92710       -1.11314
H          5.13430        0.51057       -0.99718
H          4.64928        1.91305       -0.03758
H          4.78152        2.04331       -1.80115
