16

C          0.99590       -0.11542       -0.07308
C          2.46959       -0.00614       -0.06902
C          3.25458        1.12924       -0.07104
C          2.97811        2.58490       -0.06220
N          2.19658        2.98220       -1.23148
O          4.56868        0.76987       -0.06701
N          4.67169       -0.60981       -0.06401
C          3.41440       -1.05582       -0.06669
H          0.51340        0.86630       -0.05617
H          0.65261       -0.67172        0.80518
H          0.65506       -0.64419       -0.96904
H          3.91433        3.15368       -0.04556
H          2.42265        2.84345        0.84548
H          2.73235        2.75619       -2.06960
H          2.09383        3.99517       -1.22829
H          3.24120       -2.12296       -0.06547
