16

C          0.99917       -0.04921        0.14903
C          2.52236        0.04679        0.11510
C          2.96812        1.41462       -0.39122
N          3.08327       -0.20191        1.43413
C          3.36494       -1.47884        1.88679
O          3.22347       -2.49070        1.20943
C          3.85761       -1.57762        3.25816
N          4.24622       -1.59579        4.35434
H          0.57667        0.11564       -0.84785
H          0.56952        0.69484        0.82890
H          0.67484       -1.03697        0.49351
H          2.90260       -0.72092       -0.56920
H          2.62421        2.21662        0.27146
H          2.57611        1.60808       -1.39498
H          4.06122        1.47147       -0.43714
H          3.12604        0.56151        2.09979
