19

C          2.92295       -1.13079       -0.83725
C          2.22519       -0.02027       -0.11117
C          1.76014        1.18287       -0.90307
O          0.85385        0.14383       -0.50805
C          2.43947        0.02125        1.39315
C          1.72917        1.06981        2.28333
N          1.60811        0.04025        3.33689
C          1.70816       -1.00390        2.29550
H          2.67563       -1.13971       -1.90445
H          2.64141       -2.10291       -0.42033
H          4.00820       -1.01802       -0.74664
H          2.01011        1.25271       -1.95435
H          1.67051        2.14031       -0.40534
H          3.52516        0.02372        1.58636
H          0.76376        1.42796        1.90814
H          2.33996        1.93413        2.56229
H          0.71708        0.05141        3.83387
H          0.73859       -1.34343        1.91355
H          2.30032       -1.87661        2.58687
