21

C          0.88650        0.06143        0.10317
N          2.33333       -0.06011       -0.01582
C          2.90607       -1.04266        0.92437
C          2.45380       -2.47052        0.61337
C          4.44743       -1.00335        0.89316
C          5.19788       -1.22231       -0.43169
C          5.96230        0.03643       -0.03340
O          4.97014        0.36232        0.97637
H          0.54266        0.91228       -0.49348
H          0.57168        0.23040        1.13795
H          0.37922       -0.82595       -0.28797
H          2.76361        0.84339        0.20553
H          2.59110       -0.78595        1.94448
H          2.67677       -2.74456       -0.42409
H          1.37798       -2.60130        0.77648
H          2.96941       -3.19027        1.25978
H          4.86375       -1.59779        1.71899
H          4.60038       -1.11268       -1.34224
H          5.79172       -2.13692       -0.48710
H          6.03703        0.80545       -0.80660
H          6.94433       -0.13515        0.42041
