19

C          1.80654        0.11106        0.54557
C          3.17144       -0.15927       -0.08479
C          3.24610       -1.57488       -0.64255
C          3.74394       -2.39695        0.60536
O          4.53669       -1.46512        1.38512
C          4.62271       -0.32704        0.52543
C          4.51220        1.16004        0.72903
N          3.72326        1.13088       -0.61006
H          1.43857       -0.73922        1.12770
H          1.06851        0.30074       -0.24413
H          1.79861        0.98692        1.20363
H          3.95684       -1.66389       -1.47517
H          2.28300       -1.96556       -0.98546
H          4.35171       -3.25437        0.31100
H          2.91447       -2.72524        1.23992
H          5.43968       -0.51877       -0.19717
H          3.95302        1.48563        1.61203
H          5.45262        1.71597        0.67389
H          4.31303        1.03001       -1.43017
