21

C          2.79587       -0.31782       -1.40000
C          2.40822        0.00736        0.04206
O          0.97767        0.06423        0.11775
C          2.94876       -0.98563        1.11093
N          2.44089       -2.35837        0.91070
C          4.49459       -0.95746        1.17404
C          5.07216       -1.85408        2.23775
C          5.85202       -1.44145        3.24425
H          2.33641        0.40340       -2.08544
H          2.42620       -1.30266       -1.70454
H          3.87762       -0.28574       -1.54907
H          2.76811        1.01462        0.28083
H          0.63551       -0.79173       -0.18670
H          2.55953       -0.66066        2.08542
H          2.70622       -2.71225       -0.00482
H          1.42607       -2.36232        0.97339
H          4.82401        0.07672        1.33806
H          4.91953       -1.27400        0.21437
H          4.83579       -2.91414        2.15792
H          6.12016       -0.39757        3.37090
H          6.23684       -2.15154        3.96948
