14

C          2.18086        0.42101       -1.14553
C          2.58766        0.00402        0.24133
O          2.07981       -0.95341        0.81610
N          3.55361        0.83800        0.78582
C          4.12160        0.55332        2.06955
C          3.29082        1.77663        1.83499
C          1.99290        1.89468        2.43118
N          0.94932        2.04070        2.91860
H          2.03836       -0.46768       -1.76686
H          2.94323        1.05178       -1.61178
H          1.24371        0.98018       -1.08227
H          5.19846        0.64295        2.09953
H          3.69380       -0.28534        2.60531
H          3.81525        2.71208        1.68604
