19

C          0.91740       -0.32560        1.07059
C          2.40845       -0.29563        1.17081
C          3.13685        0.81960        0.98943
C          4.64964        0.85435        1.00845
C          5.17252        1.26617       -0.36624
C          5.15298        1.82066        2.08873
N          4.88954        1.44569        3.37683
O          5.78213        2.84984        1.86560
H          0.55301       -1.34203        1.25452
H          0.58970       -0.03339        0.06863
H          0.45677        0.33493        1.81242
H          2.90190       -1.24537        1.36293
H          2.63210        1.76264        0.77942
H          5.05473       -0.13699        1.24675
H          4.83070        2.27033       -0.64481
H          4.83846        0.56818       -1.14166
H          6.26824        1.27943       -0.37493
H          4.18149        0.75460        3.58564
H          5.15360        2.09861        4.10252
