16

C          0.98784       -0.06473        0.08979
C          2.50793       -0.08467        0.04386
N          3.00660       -1.31887        0.64392
C          4.47609       -1.38371        0.59876
C          4.96809       -2.70748        1.17030
O          4.35732       -3.77035        1.09038
C          6.29539       -2.65493        1.75523
N          7.36507       -2.57281        2.20255
H          0.61087        0.87803       -0.31981
H          0.62037       -0.15555        1.11766
H          0.56240       -0.88314       -0.50071
H          2.89036        0.78133        0.59613
H          2.83769        0.00200       -0.99759
H          2.61545       -2.13376        0.16297
H          4.89575       -0.55964        1.18640
H          4.84110       -1.31337       -0.43231
