14

C          1.53299        1.10515        0.34611
N          2.49707        0.11399       -0.08776
C          3.22693        0.21592       -1.23006
C          3.55267        1.27495       -1.96685
O          4.31223        0.99932       -3.10308
C          4.43571       -0.37594       -3.00259
O          5.02798       -1.08229       -3.80315
N          3.78954       -0.81906       -1.87725
H          1.11922        0.81777        1.31728
H          0.70795        1.17461       -0.37037
H          1.99712        2.09030        0.45345
H          2.23150       -0.84057        0.12849
H          3.32008        2.31466       -1.81938
H          3.76448       -1.78593       -1.60746
