18

C          1.22470        0.32542        0.02869
N          2.55623       -0.17528       -0.20020
C          3.21406       -0.11295       -1.41112
C          2.40206       -0.01019       -2.71821
O          1.58929       -1.15912       -2.91560
N          4.51968       -0.16092       -1.36604
O          5.09886       -0.09465       -2.63735
C          6.51195       -0.02795       -2.47934
H          0.99058        0.27286        1.09640
H          0.47977       -0.26737       -0.50907
H          1.14549        1.37236       -0.28049
H          3.19167       -0.10840        0.58813
H          3.03286        0.11789       -3.59801
H          1.74791        0.86376       -2.65696
H          2.20477       -1.91183       -2.95925
H          6.97039       -0.01545       -3.47080
H          6.87493       -0.90357       -1.93170
H          6.78814        0.88967       -1.94996
