17

C          0.95963        0.01699       -0.00558
C          2.46774       -0.08855       -0.11664
N          3.18396        0.96348        0.64721
C          4.18587       -0.03646        1.09044
C          5.37141        0.05054        0.25803
C          6.34448        0.11658       -0.44324
C          3.16559       -1.16239        0.75664
O          3.62810       -2.35927        0.08713
H          0.58887        0.88156       -0.56633
H          0.62701        0.11562        1.03325
H          0.48621       -0.87730       -0.42428
H          2.77653       -0.12366       -1.17054
H          2.64681        1.34776        1.42453
H          4.42247        0.03229        2.15893
H          7.20121        0.18163       -1.07284
H          2.57583       -1.44824        1.63814
H          4.18337       -2.03898       -0.64640
