19

C          1.02087       -0.18541       -0.07525
C          2.53961       -0.11790        0.01692
C          3.05077        0.95931        0.98982
C          2.59480        0.70395        2.41097
C          1.85397        1.55866        3.12973
C          4.58695        1.02052        0.96403
N          5.14518        2.02134        1.71083
O          5.30445        0.26799        0.31275
H          0.72466       -0.86466       -0.88138
H          0.59317        0.79930       -0.28794
H          0.58096       -0.56254        0.85315
H          2.93631        0.09020       -0.98539
H          2.92503       -1.10594        0.29983
H          2.69080        1.93727        0.64254
H          2.90127       -0.23930        2.86182
H          1.51642        2.50840        2.72286
H          1.55715        1.31754        4.14615
H          4.61525        2.48637        2.43573
H          6.15441        2.02623        1.77943
