19

C          2.86474        1.10915       -0.87811
C          2.38364        0.01354        0.06845
C          2.80615       -1.32875       -0.49351
O          3.42113       -2.18053        0.13989
C          2.91430        0.26764        1.47485
C          2.39014        1.51118        2.23285
N          2.37929        0.69183        3.46114
C          2.23224       -0.51850        2.62210
H          2.52571        0.92453       -1.90292
H          3.95882        1.16599       -0.89548
H          2.48452        2.08824       -0.57015
H          1.28631        0.01292        0.07178
H          2.48065       -1.53401       -1.52847
H          4.01222        0.19645        1.51758
H          1.39620        1.85640        1.92667
H          3.07125        2.36583        2.26090
H          1.60789        0.86896        4.09952
H          1.18578       -0.79384        2.43706
H          2.77027       -1.39751        2.98646
