16

C          0.99280       -0.03943        0.12000
C          2.50169        0.01599        0.10415
C          3.14814        1.19909       -0.62147
O          4.42207        1.56956       -0.12397
N          3.13259       -0.98053        0.65616
N          4.48990       -0.97055        0.60477
C          5.21466       -1.99309        1.15566
O          6.43830       -2.03526        1.17515
H          0.56120        0.85099       -0.34266
H          0.64445       -0.10873        1.15432
H          0.65939       -0.92328       -0.43122
H          2.49212        2.07265       -0.56011
H          3.25539        0.92698       -1.67594
H          4.28443        1.93392        0.77024
H          4.99210       -0.18445        0.18824
H          4.58263       -2.78643        1.58884
