21

C          0.89482       -0.01446       -0.03504
C          2.43151       -0.05834        0.02854
C          2.88658        0.32766        1.44351
N          2.83855       -1.44567       -0.25412
C          3.00096        0.90838       -1.04127
C          4.50028        0.99923       -1.07547
C          5.17702        1.95532       -2.02242
O          5.03893        2.24716       -0.62453
H          0.44087       -0.69656        0.69416
H          0.52714       -0.29802       -1.02769
H          0.52021        0.99273        0.18155
H          2.43589       -0.32516        2.19956
H          2.59411        1.35686        1.68167
H          3.97498        0.25664        1.55655
H          2.37548       -2.07767        0.39929
H          3.83583       -1.56053       -0.07608
H          2.57809        1.90943       -0.88159
H          2.65866        0.59027       -2.03479
H          5.02627        0.08628       -0.83858
H          4.56900        2.51601       -2.72105
H          6.16474        1.69910       -2.38556
