18

C          2.32664       -0.31985       -1.21426
C          2.23865        0.23725        0.23190
C          2.95459       -1.08633        0.66288
C          3.58109       -1.09202       -0.75316
N          4.81363       -0.35062       -0.87394
C          5.09768        0.62647        0.04984
N          4.37359        1.48136        0.66812
C          2.95414        1.58449        0.33526
H          2.44902        0.40346       -2.02572
H          1.48038       -0.97023       -1.47117
H          1.21328        0.31974        0.61202
H          2.26434       -1.92549        0.82419
H          3.63138       -1.05009        1.52031
H          3.68737       -2.07699       -1.22211
H          5.60301       -0.95273       -1.07782
H          6.17646        0.62402        0.29273
H          2.84912        2.15809       -0.59219
H          2.47430        2.18638        1.11192
