16

C          1.10561        0.05692       -0.00117
C          2.61367        0.03666       -0.00623
N          3.24039        1.16862        0.00740
N          4.59325        1.16465        0.00741
C          5.42074        0.08100       -0.00718
O          6.64394        0.21861       -0.00038
C          4.79032       -1.28040       -0.03700
C          3.28021       -1.30966       -0.02226
H          0.73127        1.08427        0.00485
H          0.74045       -0.46196        0.88922
H          0.73376       -0.45416       -0.89319
H          5.04233        2.07571        0.02388
H          5.17246       -1.83998        0.82515
H          5.15483       -1.79144       -0.93620
H          2.92962       -1.86627        0.85517
H          2.91258       -1.85570       -0.89941
