15

C          0.91183        0.02533       -0.08425
C          2.39357       -0.02685       -0.08026
C          3.27570        1.03878       -0.07645
N          4.55880        0.54437       -0.07273
C          4.52409       -0.82815       -0.07404
O          5.61304       -1.58894       -0.07028
C          3.19838       -1.18625       -0.07923
O          2.78509       -2.46189       -0.08220
H          0.55011        1.05860       -0.08511
H          0.50923       -0.47410        0.80281
H          0.51375       -0.47408       -0.97334
H          3.09943        2.10631       -0.07596
H          5.39152        1.11545       -0.06967
H          6.40318       -1.02317       -0.06358
H          3.57673       -3.03120       -0.08065
