16

C          1.20511        0.25861       -0.33566
N          2.65023        0.26693       -0.12941
C          3.28643       -0.51545       -0.92977
N          4.63234       -0.70792       -0.87933
O          5.21431       -1.03476       -2.11086
C          6.57876       -0.90869       -2.06682
C          7.21037       -1.38232       -3.34121
O          7.20833       -0.46761       -1.11240
H          0.75417        1.05402        0.26621
H          0.77229       -0.69229       -0.00698
H          0.93623        0.44136       -1.38159
H          2.78548       -1.12350       -1.70425
H          5.14996       -0.02075       -0.32979
H          6.44958       -1.64833       -4.08093
H          7.82075       -2.26434       -3.13476
H          7.82655       -0.58071       -3.75604
