16

C          1.02385        0.09084        0.04333
C          2.52046        0.06733        0.07424
C          3.26113        0.74477       -0.81682
N          4.63400        0.81684       -0.91162
O          5.44992        0.11522        0.01119
C          5.30983        1.55292       -1.87980
N          6.66859        1.47962       -1.78338
O          4.78537        2.22477       -2.76349
H          0.62718       -0.52690        0.85588
H          0.64448       -0.31554       -0.89923
H          0.64449        1.10775        0.18284
H          2.94778       -0.53475        0.86617
H          2.74958        1.32818       -1.58419
H          4.82526       -0.33044        0.59755
H          7.06300        0.91671       -1.04302
H          7.24619        1.97916       -2.44045
