19

C          0.98609        0.07376       -0.03623
C          2.52389        0.06107       -0.02967
C          3.02655        0.10583       -1.48020
C          3.02697        1.29186        0.73868
C          3.02202       -1.22096        0.65552
O          2.27517       -2.08291        1.12015
N          4.38503       -1.36601        0.72787
O          4.86395       -2.53451        1.35872
H          0.59707        0.97695       -0.51939
H          0.58430        0.04067        0.98320
H          0.58405       -0.79268       -0.57439
H          2.63656        0.98392       -2.00722
H          2.71107       -0.78681       -2.03260
H          4.11975        0.15087       -1.53281
H          2.63711        2.21797        0.30132
H          4.12018        1.36037        0.73039
H          2.71165        1.25544        1.78782
H          5.07444       -0.70672        0.38729
H          4.02904       -2.99117        1.60704
