18

C          1.00219       -0.05006       -0.09221
C          2.52502        0.04731        0.00334
C          3.05129        1.33082       -0.65019
O          4.01323        1.15208       -1.70223
C          4.12076       -0.07688       -2.25579
C          4.88122       -0.05026       -3.54522
N          3.67219       -1.18800       -1.76531
N          3.15816       -1.15058       -0.52294
H          0.53266        0.82980        0.36214
H          0.63181       -0.93037        0.44573
H          0.66441       -0.11849       -1.13159
H          2.76342        0.09619        1.07290
H          3.54321        1.94816        0.10942
H          2.23633        1.93253       -1.06946
H          5.05171        0.97680       -3.87820
H          4.31813       -0.58189       -4.31687
H          5.84868       -0.54037       -3.40035
H          2.63400       -1.99965       -0.30752
