15

C          1.09118       -0.06636       -0.10265
N          2.50767       -0.29857       -0.17701
C          3.14627       -1.37832        0.32435
N          2.65097       -2.50834        0.66105
O          4.46196       -1.12474        0.45206
C          5.24175       -2.11848        1.13518
C          6.53428       -1.46072        1.59028
N          7.60654       -0.91505        1.96783
H          0.86751        0.96810       -0.38246
H          0.71582       -0.23182        0.91191
H          0.55831       -0.72764       -0.79309
H          3.08861        0.53280       -0.21603
H          1.64755       -2.49418        0.47138
H          5.46631       -2.94480        0.45333
H          4.72097       -2.48767        2.02614
