19

C          0.83815        0.03411       -0.02830
C          2.35739        0.03594       -0.09087
C          3.22928        1.04654        0.78370
N          2.95458        0.05226        1.92477
C          3.24009       -0.95256        0.79781
C          4.74163       -0.72125        0.56050
C          5.37835        0.05112       -0.55526
C          4.73333        0.82915        0.55161
H          0.43757        0.86758       -0.61478
H          0.44061        0.12759        0.98537
H          0.44458       -0.89359       -0.45598
H          2.63586        0.02359       -1.15317
H          2.86824        2.06413        0.93559
H          1.99737        0.04722        2.26747
H          2.89108       -1.97245        0.96149
H          5.34240       -1.21414        1.31389
H          4.90832        0.04390       -1.53107
H          6.46227        0.05705       -0.60836
H          5.32832        1.33677        1.29966
