16

C          3.24413        0.52383        1.37196
C          2.61844        0.08709        0.07781
N          1.34341        0.02788       -0.09955
N          3.38489       -0.27306       -0.98737
C          4.76005       -0.29604       -1.05480
O          5.52494        0.01136       -0.14614
C          5.27680       -0.74338       -2.37647
C          6.60228       -0.81203       -2.57043
H          2.47875        0.77437        2.11095
H          3.86347        1.40928        1.20254
H          3.86177       -0.28405        1.77466
H          0.85399        0.31719        0.75534
H          2.83517       -0.54365       -1.78901
H          4.58152       -1.00660       -3.16096
H          7.30400       -0.54781       -1.78322
H          7.01813       -1.13310       -3.51846
