16

C          1.01618       -0.09653        0.14070
C          2.53835       -0.04633        0.07655
N          2.96038        0.74459       -1.09788
C          4.41885        0.69537       -1.28994
C          4.88672        1.49117       -2.49749
N          5.27486        2.15135       -3.49926
C          3.04209        0.56742        1.38156
O          3.42217        1.72959        1.49502
H          0.60087       -0.61540       -0.73056
H          0.58306        0.91126        0.17586
H          0.68074       -0.62227        1.04082
H          2.93432       -1.06598        0.00532
H          2.69633        1.72144       -0.93695
H          4.73942       -0.34323       -1.43371
H          4.95200        1.09112       -0.41930
H          3.03032       -0.10818        2.25160
