19

C          0.91008       -0.01508       -0.04503
N          2.36760       -0.02260       -0.06336
C          2.90838        0.91510        0.92599
C          4.44199        0.89895        0.92257
O          4.92731        1.84629        1.87904
C          6.35013        1.83747        1.93325
C          6.80552        2.85359        2.95330
O          7.83508        3.51492        2.83971
H          0.53449       -0.73153       -0.78251
H          0.51140        0.97222       -0.30035
H          0.52321       -0.31656        0.93376
H          2.68608        0.24551       -0.99478
H          2.55724        0.65496        1.93252
H          2.55969        1.93549        0.72434
H          4.81882        1.16789       -0.07134
H          4.80662       -0.10207        1.18285
H          6.76990        2.09980        0.95683
H          6.70402        0.85266        2.25344
H          6.20378        2.90163        3.87713
