19

C          0.97740       -0.05206       -0.03395
C          2.49654       -0.08219       -0.05191
O          2.97332       -0.45672        1.23422
C          3.00320       -1.08096       -1.07960
C          3.43782       -1.93771       -1.96115
C          3.94448       -2.93648       -2.98884
C          2.85551       -3.95348       -3.33599
N          3.32036       -4.92217       -4.32848
H          0.61815        0.65505        0.72145
H          0.56493       -1.03277        0.23036
H          0.57137        0.23894       -1.00812
H          2.89144        0.91186       -0.28440
H          2.80044       -1.40881        1.33109
H          4.82712       -3.44357       -2.58190
H          4.25781       -2.38855       -3.88520
H          1.96746       -3.44014       -3.72321
H          2.54719       -4.49298       -2.43285
H          3.54121       -4.44181       -5.20034
H          2.56260       -5.56890       -4.54615
