20

C          0.97791        0.13701       -0.10297
C          2.50326        0.03669        0.00715
C          2.94596       -0.30221        1.44411
N          2.53747       -1.63544        1.87338
C          3.03553       -0.94703       -1.04800
C          4.53741       -1.01991       -1.02377
N          5.25089       -0.25919       -1.79022
O          6.60467       -0.50657       -1.53514
H          0.58321        0.86057        0.61800
H          0.49186       -0.82686        0.08014
H          0.68410        0.47066       -1.10394
H          2.91227        1.03056       -0.22150
H          2.53573        0.43905        2.13994
H          4.03630       -0.23066        1.52353
H          1.51954       -1.68488        1.91616
H          2.85732       -1.79008        2.83007
H          2.72286       -0.61934       -2.04688
H          2.64239       -1.95747       -0.89303
H          4.99689       -1.71124       -0.29514
H          7.04793        0.10365       -2.15360
