20

C          1.01599       -0.01695       -0.12228
C          2.53315        0.06963       -0.04896
C          2.97625        1.04949        1.03711
N          4.44301        1.10147        1.10227
N          4.85636        2.06527        2.05811
C          5.19796        1.60868        3.38987
C          5.22281        3.32827        1.61128
O          5.13761        3.72604        0.45486
H          0.71205       -0.72031       -0.90364
H          0.57841        0.95932       -0.35464
H          0.59721       -0.36306        0.82820
H          2.92072        0.38619       -1.02499
H          2.93968       -0.92855        0.15384
H          2.57566        0.72828        2.00617
H          2.57051        2.04502        0.81852
H          4.78749        1.42570        0.18876
H          4.90369        0.56546        3.53471
H          4.67910        2.24124        4.11633
H          6.27609        1.71911        3.53999
H          5.60007        3.96763        2.42709
