17

C          0.98501        0.16872       -0.05887
C          2.47473        0.11676       -0.09668
C          3.26656       -0.61635       -1.14880
O          2.57320       -1.23750       -2.24873
C          3.28965        0.90724       -1.10203
N          2.60093        1.68726       -2.14369
C          4.50610        1.51795       -0.62386
C          5.52290        2.03536       -0.24970
H          0.60974       -0.51867        0.70673
H          0.50715       -0.10158       -1.00296
H          0.65101        1.17649        0.20831
H          2.86158        0.07911        0.91914
H          4.15621       -1.13766       -0.80291
H          1.69710       -0.85975       -2.41368
H          1.87911        1.14492       -2.60388
H          3.27270        1.91628       -2.87676
H          6.42479        2.50367        0.07058
