17

C          0.96121        0.02175       -0.17034
C          2.45079       -0.10641        0.08045
C          3.08017       -1.31146       -0.57745
C          4.09575       -0.94870       -1.36548
N          4.23255        0.40771       -1.35586
C          5.24244        1.14062       -2.07505
C          3.25730        1.02044       -0.57202
O          3.08513        2.21901       -0.41469
H          0.41776       -0.80057        0.30780
H          0.72267        0.00962       -1.23931
H          0.57923        0.96230        0.24120
H          2.66874       -0.11317        1.15390
H          2.76371       -2.32892       -0.40072
H          4.74756       -1.58792       -1.94264
H          5.95192        0.46071       -2.55571
H          5.77594        1.78633       -1.37044
H          4.76095        1.77169       -2.82719
