14

C          1.06514        1.45473       -0.14348
O          2.12560        0.47542        0.00872
N          1.47001       -0.76203        0.20585
C          0.13167       -0.53223        0.20337
N         -0.88041       -1.26325       -0.09438
O         -2.00342       -0.38898       -0.06559
C         -1.48991        0.95493       -0.16374
C         -0.15753        0.86982        0.51340
H          0.93154        1.65169       -1.21389
H          1.37735        2.38454        0.34109
H          1.78973       -1.52350       -0.38679
H         -2.17381        1.63950        0.34507
H         -1.43284        1.23049       -1.22260
H         -0.19076        0.99358        1.60008
