14

O          3.31288       -1.00772       -0.28611
C          2.47664        0.10435       -0.02026
C          2.97501        1.04597        1.06703
O          2.22467        1.73105        1.75507
C          4.40510        1.19457        1.21308
C          5.68700        1.35169        1.39220
C          7.18140        1.53485        1.60100
C          7.88040        2.35999        0.81656
H          2.88241       -1.53045       -0.98397
H          1.49778       -0.27634        0.28933
H          2.35958        0.68443       -0.94101
H          7.64020        0.97111        2.40668
H          7.40907        2.91960        0.01484
H          8.94674        2.49290        0.96518
