17

C          1.34983        0.36724        0.12756
C          2.64910       -0.37357        0.00053
O          2.66063       -1.56498       -0.83725
C          2.75187       -1.22942       -2.25669
C          3.65224       -0.01000       -2.62382
N          2.45889        0.85650       -2.24943
C          1.63378       -0.29295       -2.78719
C          2.43231        0.93474       -0.74958
H          1.15383        0.87394        1.06669
H          0.46033       -0.07333       -0.29873
H          3.32130       -0.36075        0.85133
H          2.92171       -2.13261       -2.84917
H          3.93369        0.05758       -3.68267
H          4.55477        0.13446       -2.02044
H          1.52838       -0.28111       -3.88089
H          0.63167       -0.41933       -2.37165
H          2.95610        1.80621       -0.36342
