13

C          5.79944       -0.67531       -1.88177
C          4.90958       -0.37958       -0.97582
C          3.87221       -0.03483        0.08030
C          4.31455        1.16545        0.82573
C          4.06918        2.48921        0.54385
O          4.65453        3.27802        1.47844
N          5.30614        2.48226        2.40619
C          5.09884        1.22813        1.99915
H          6.52991       -0.91297       -2.62074
H          3.74933       -0.88761        0.75714
H          2.90716        0.14450       -0.40661
H          3.53380        3.01085       -0.23573
H          5.52792        0.41807        2.57315
