16

C          0.97463        0.07021       -0.06653
C          2.49463        0.07021       -0.06653
C          3.79849        0.07021       -0.06653
C          5.31849        0.07021       -0.06653
N          5.78624       -0.26936        1.28127
C          5.85769       -0.94771       -1.04876
N          6.63841       -0.60176       -2.02582
O          6.98869       -1.74417       -2.75468
H          0.60153       -0.23998        0.91347
H          0.60153       -0.62343       -0.82515
H          0.60148        1.07399       -0.28792
H          5.68346        1.06578       -0.34071
H          5.35207       -1.14386        1.57263
H          5.43282        0.43889        1.92355
H          5.56488       -2.00211       -0.89389
H          7.60809       -1.38600       -3.41828
