16

C          0.97477        0.03335       -0.01574
C          2.49423        0.06585       -0.08201
O          2.86806        0.87047       -1.19935
N          4.26327        0.82035       -1.36057
C          4.60322        1.64049       -2.29468
C          3.02838        0.68200        1.19211
N          3.38858       -0.05155        2.19768
O          3.81331        0.78621        3.23532
H          0.55965       -0.41493       -0.92475
H          0.56184        1.04635        0.05570
H          0.62380       -0.53915        0.84895
H          2.88059       -0.95314       -0.20159
H          5.66485        1.75925       -2.55950
H          3.87530        2.25256       -2.85310
H          3.05160        1.78533        1.24174
H          4.12035        0.14825        3.90675
