12

C          0.90862       -0.00994       -0.03939
C          2.42862       -0.00994       -0.03939
C          3.73248       -0.00994       -0.03939
C          5.14482        0.05313       -0.03863
N          5.90971        1.12166       -0.03559
N          7.21149        0.65551       -0.03589
C          7.12500       -0.65448       -0.03904
O          5.84326       -1.11912       -0.04093
H          0.53548       -0.58500        0.81261
H          0.53548       -0.46026       -0.96341
H          0.53549        1.01545        0.03263
H          7.91942       -1.38497       -0.04024
