20

C          2.75369        0.98660        0.89142
C          2.51818       -0.15676       -0.07158
C          3.21420       -0.09167       -1.42685
C          2.28307       -0.05174       -2.64101
C          1.35266        1.15503       -2.67753
O          0.47763        1.19014       -1.56236
N          1.75154       -1.12227        0.35013
N          1.54831       -2.17316       -0.46807
H          3.34982        1.77891        0.43395
H          3.28195        0.60897        1.77165
H          1.79205        1.40299        1.20309
H          3.87783       -0.96153       -1.50207
H          3.86519        0.78922       -1.45213
H          1.68000       -0.96353       -2.68704
H          2.90025       -0.04410       -3.54748
H          0.74127        1.12531       -3.58515
H          1.92626        2.08665       -2.69081
H          0.20206        0.27409       -1.36028
H          1.04349       -2.90486        0.03865
H          2.42354       -2.60039       -0.77638
