14

C          0.94380        0.02905       -0.01722
N          2.39014       -0.06920       -0.05714
C          2.92112       -1.18982        0.27166
O          4.32024       -1.25329        0.24669
C          4.56329       -2.60522        0.52133
C          3.46244       -3.31008        0.74230
N          2.42708       -2.43148        0.67611
O          1.19196       -2.83545        0.18855
H          0.65617        1.07502       -0.17080
H          0.53695       -0.27669        0.95216
H          0.48219       -0.55153       -0.82139
H          5.59304       -2.90547        0.47232
H          3.33006       -4.36745        0.90836
H          0.85189       -3.39451        0.90914
