17

C          1.28827       -0.13432       -0.40012
C          2.69665        0.11028        0.02764
C          3.53952       -1.03396        0.54554
N          3.76287       -0.46611       -0.73778
C          4.77157        0.46786       -0.98297
O          5.83160        0.26425       -1.55017
C          4.27531        1.82698       -0.53588
C          3.09132        1.52080        0.38003
H          1.13404       -1.16423       -0.73960
H          1.00999        0.53522       -1.22119
H          0.60554        0.04989        0.43623
H          3.16015       -2.04671        0.49730
H          4.31802       -0.85441        1.27359
H          3.94379        2.37212       -1.42678
H          5.05496        2.39311       -0.02252
H          2.28259        2.24258        0.23059
H          3.39614        1.57501        1.43177
