19

C          0.75829       -0.23303       -0.26948
C          2.23471       -0.18788        0.00559
C          2.61053       -0.07775        1.46586
C          4.07196       -0.14200        1.80921
C          5.03683        0.98507        1.54145
N          4.57450        0.70544        2.89748
C          3.19520       -0.64226       -1.07423
O          2.92515        0.74808       -0.84093
H          0.28281       -1.01417        0.33231
H          0.54147       -0.44460       -1.32196
H          0.29441        0.72528       -0.01390
H          2.12119       -0.90028        2.00024
H          2.16933        0.84783        1.85607
H          4.45981       -1.15443        1.79384
H          4.67526        1.88844        1.06659
H          6.07433        0.73877        1.34940
H          3.88614        1.40713        3.18028
H          2.79792       -1.07347       -1.98681
H          4.17508       -1.01579       -0.80707
