15

C          0.77819       -0.07665        0.07979
C          2.06560       -0.28218        0.80782
C          3.30032       -0.16794        0.29966
C          3.62851        0.26010       -1.09129
O          2.82843        0.58216       -1.95012
O          4.99746        0.28130       -1.15095
N          5.43271        1.32912       -1.98107
C          6.72172        1.34038       -1.98001
H         -0.05667       -0.19422        0.77873
H          0.65490       -0.82499       -0.70820
H          0.71006        0.92916       -0.34469
H          1.97658       -0.54798        1.85881
H          4.15538       -0.34164        0.94202
H          7.26506        2.13568       -2.50960
H          7.32908        0.58208       -1.45434
