21

C          1.66597       -0.99693       -0.50212
C          2.70937        0.00724       -0.02676
O          2.12669        1.30774       -0.00812
C          3.20496       -0.31411        1.35415
C          3.98359       -1.58189        1.61142
C          4.67406       -0.25022        1.76105
C          5.75391        0.07323        0.75663
N          4.97702        0.19855        3.13182
H          1.28601       -0.71607       -1.48971
H          0.80672       -1.02508        0.17609
H          2.08474       -2.00681       -0.56523
H          3.51994        0.03514       -0.75846
H          1.33022        1.26781        0.54804
H          2.46281       -0.05400        2.10276
H          4.25615       -2.21120        0.76985
H          3.74795       -2.14774        2.50586
H          5.56951       -0.37144       -0.22549
H          6.71859       -0.31434        1.10444
H          5.84567        1.15688        0.63162
H          4.21289       -0.00940        3.77225
H          5.08926        1.21243        3.15213
