19

C          0.86906        0.04798        0.18179
C          2.37676       -0.04174       -0.04077
C          2.72382       -0.03140       -1.53792
O          4.14205       -0.05980       -1.72242
N          3.11342        1.02083        0.70313
C          4.00201        0.01471        1.31454
C          3.08063       -1.12183        0.83531
O          3.70859       -2.23295        0.15969
H          0.44724        0.93071       -0.31161
H          0.61399        0.10730        1.24619
H          0.36763       -0.83580       -0.22767
H          2.33532        0.86540       -2.03286
H          2.30327       -0.90758       -2.04068
H          4.46478        0.75337       -1.28578
H          2.54455        1.51512        1.39308
H          4.10040        0.10281        2.40161
H          5.00968        0.00211        0.88453
H          2.44936       -1.50111        1.64878
H          4.21182       -1.82164       -0.57369
