16

C          1.08620        0.06344       -0.05158
N          2.53808        0.05015       -0.12289
C          3.25702        1.01709        0.69390
C          3.25115       -0.91788       -0.83794
C          2.50362       -1.98096       -1.66744
O          1.44384       -2.47034       -1.30773
N          4.56185       -0.92054       -0.83357
O          5.11048       -1.95443       -1.59728
H          0.70957        0.92094        0.51577
H          0.71083       -0.83707        0.44370
H          0.65591        0.13445       -1.05650
H          2.58403        1.69730        1.22556
H          3.90917        1.63125        0.06359
H          3.87012        0.50787        1.44450
H          2.99199       -2.24271       -2.61792
H          6.06898       -1.82232       -1.46688
