19

C          3.00264       -1.27443        0.83231
C          2.63115       -0.07622       -0.02842
C          3.14084        1.25716        0.52069
N          4.59926        1.34829        0.58521
O          5.19040        0.96736        1.80292
C          5.38838        1.76350       -0.45511
C          6.88044        1.83206       -0.21770
O          4.92473        2.09590       -1.54915
H          2.53344       -2.18179        0.43788
H          2.66348       -1.14012        1.86438
H          4.08458       -1.43803        0.83974
H          1.53723       -0.02588       -0.09665
H          3.00715       -0.23518       -1.04501
H          2.72903        1.45420        1.51756
H          2.78568        2.05603       -0.14319
H          4.47774        0.54043        2.30724
H          7.18716        1.47350        0.76494
H          7.20481        2.87208       -0.31796
H          7.38439        1.21988       -0.97130
