17

C          1.09876       -0.02433        0.10211
N          2.56299       -0.01704        0.07362
C          3.19906       -1.00088       -0.80447
C          3.29177        0.83797        0.89393
C          4.62334        0.96078        0.98662
C          5.36724        1.86098        1.88506
O          4.68494        2.93482        2.32571
O          6.53643        1.65582        2.17029
H          0.66856       -0.76479       -0.58116
H          0.71356        0.95744       -0.19143
H          0.74017       -0.25469        1.11019
H          2.47073       -1.60164       -1.35842
H          3.81522       -1.69067       -0.21777
H          3.83480       -0.49634       -1.53969
H          2.63162        1.43330        1.52135
H          5.27727        0.32298        0.40161
H          3.82307        3.06782        1.89727
