16

C          1.06895        0.03758       -0.12906
C          2.58327        0.05321        0.01877
N          3.04783       -1.11156        0.71098
C          3.63081       -0.81501        1.91258
O          4.07026       -1.60332        2.72685
C          3.65634        0.64613        2.04058
C          3.07746        1.15048        0.94356
N          2.93386        2.48308        0.62847
H          0.75288       -0.81274       -0.74325
H          0.70692        0.95447       -0.60526
H          0.56961       -0.06062        0.84231
H          3.07880        0.09988       -0.95659
H          2.93460       -2.06779        0.40531
H          4.09379        1.15721        2.87765
H          3.54984        3.10031        1.15447
H          2.94877        2.68001       -0.37010
