16

C          1.10441        0.18472        0.13108
N          2.55918        0.08744        0.03173
C          2.98054       -1.16870       -0.61781
C          2.47387       -1.30039       -2.04482
N          2.05355       -1.40964       -3.22864
C          4.47665       -1.14450       -0.78457
C          5.41753       -1.13663        0.40030
O          5.14387       -2.33508       -0.33333
H          0.84061        1.09005        0.68599
H          0.67798       -0.67125        0.66451
H          0.63209        0.26652       -0.85382
H          2.94724        0.11082        0.97450
H          2.65984       -2.03426       -0.02583
H          4.83171       -0.66044       -1.68770
H          5.01460       -1.05125        1.40049
H          6.39389       -0.68336        0.26990
