16

C          1.03944        0.04261       -0.09111
C          2.55619        0.01412       -0.07819
C          3.12941       -1.09394        0.43428
N          3.22730        1.13336       -0.59589
O          4.63097        1.19447       -0.62775
C          2.68366        2.29665       -1.13421
N          1.44360        2.63983       -1.29247
O          1.38461        3.90990       -1.88036
H          0.59975       -0.86867        0.33046
H          0.66381        0.12673       -1.11620
H          0.66403        0.87830        0.50860
H          2.52102       -1.91192        0.81289
H          4.19605       -1.25533        0.50868
H          4.92906        0.36294       -0.23495
H          3.47896        2.99497       -1.45772
H          0.42384        4.06152       -1.95047
