21

C          0.98536        0.07470        0.05419
C          2.50543       -0.02813        0.03521
C          3.04312       -1.43207        0.38423
N          2.55904       -2.43682       -0.57808
C          4.59145       -1.42019        0.45324
O          5.01417       -0.47381        1.44889
C          5.18696       -2.80324        0.77173
O          6.60627       -2.70372        0.92148
H          0.68034        1.11304       -0.11155
H          0.58273       -0.24737        1.01917
H          0.52996       -0.53145       -0.73435
H          2.89555        0.70097        0.75495
H          2.87228        0.27972       -0.95250
H          2.66083       -1.70242        1.37727
H          2.72692       -2.09968       -1.52713
H          1.54671       -2.52572       -0.49389
H          5.00821       -1.06646       -0.49776
H          5.35187       -0.98324        2.20946
H          4.97593       -3.53410       -0.01494
H          4.79707       -3.18579        1.71980
H          6.94661       -2.23399        0.13789
