15

C         -1.34701       -1.17454        0.17416
O         -2.09961        0.04621       -0.00736
N         -1.16122        1.12181        0.03945
C         -0.01867        0.57240       -0.16324
C          1.33549        1.09721       -0.05172
C          2.07604       -0.01118        0.09436
C          1.28570       -1.29936        0.08848
C         -0.04181       -0.86581       -0.49284
H         -1.87662       -1.99910       -0.31114
H         -1.25927       -1.38162        1.24619
H          1.61633        2.13396       -0.02163
H          3.14638        0.00594        0.25492
H          1.19801       -1.69634        1.10569
H          1.76279       -2.05605       -0.54102
H         -0.09099       -0.97232       -1.58326
