21

C          1.08060        0.01975        0.09859
C          2.57547       -0.15553       -0.06663
O          3.31108        0.91431        0.59724
C          4.26384       -0.05709        1.11931
C          5.58006        0.03680        0.36761
C          3.26892       -1.20632        0.82503
C          3.77864       -2.46110        0.14184
N          2.67753       -3.39123       -0.09561
H          0.73342        0.89883       -0.45381
H          0.80272        0.14679        1.14917
H          0.54732       -0.85277       -0.29219
H          2.85916       -0.19739       -1.12681
H          4.41877        0.09390        2.19487
H          5.43204        0.00469       -0.71752
H          6.24399       -0.78825        0.64468
H          6.09159        0.97359        0.60736
H          2.69332       -1.45310        1.72947
H          4.53004       -2.95351        0.76839
H          4.25252       -2.22595       -0.81687
H          2.30638       -3.71893        0.79625
H          3.03395       -4.22285       -0.56822
