17

C          1.01031        0.08190       -0.07537
C          2.47024        0.30919        0.08202
O          3.29454       -0.47285       -0.78925
C          3.27980        0.94683       -1.01800
C          4.56317        1.65097       -0.71608
O          5.54946        1.25380       -1.66941
N          6.75472        1.91042       -1.37192
C          7.67597        1.43095       -2.13597
H          0.66462       -0.66128        0.64985
H          0.75395       -0.27657       -1.07772
H          0.46519        1.01318        0.10521
H          2.78012        0.41813        1.11236
H          2.79568        1.31068       -1.91258
H          4.91817        1.41516        0.29502
H          4.40890        2.73414       -0.78793
H          8.70581        1.81510       -2.06431
H          7.48740        0.63823       -2.87966
