16

C          0.91197       -0.07693        0.02453
N          2.37004       -0.06750        0.02958
C          3.09621        0.90728        0.67993
N          2.63138        1.90927        1.34026
C          3.07913       -1.06321       -0.64235
O          4.31085       -1.09442       -0.73108
C          2.25999       -2.15996       -1.34546
O          3.06755       -3.16708       -1.93747
H          0.46442        0.76076        0.55576
H          0.56023       -1.00251        0.49053
H          0.56136       -0.04720       -1.01185
H          4.19141        0.79512        0.61246
H          1.61803        1.95902        1.36581
H          1.66401       -1.70599       -2.14148
H          1.60513       -2.65344       -0.62339
H          3.93150       -2.74979       -2.12821
