18

C          0.82482        0.69210       -0.14054
C          2.28956        0.45883       -0.45762
O          3.08218        0.61388        0.72863
C          4.38962        0.28466        0.47429
C          5.44001        0.75397        1.15355
N          5.47061        1.62039        2.21350
C          6.57819        2.09198        2.85201
N          6.61928        2.87814        3.86733
H          0.22035        0.61569       -1.04833
H          0.67088        1.68054        0.30520
H          0.46166       -0.04815        0.58184
H          2.62093        1.18443       -1.21202
H          2.39767       -0.55609       -0.86167
H          4.53236       -0.41721       -0.33763
H          6.43224        0.42291        0.85083
H          4.55638        1.91077        2.54445
H          7.52795        1.73603        2.41360
H          5.67171        3.11998        4.16027
