13

C          1.71718        0.10504       -0.87145
O          1.74245        0.61504        0.50408
C          2.54807        1.60995        0.13573
C          3.19393        2.69524        0.62289
N          3.95203        3.44588       -0.21156
C          4.02606        3.05513       -1.52272
C          3.37923        1.94561       -2.05927
C          2.62479        1.23233       -1.17143
H          0.70504        0.13465       -1.28661
H          2.11278       -0.91358       -0.93017
H          3.13994        3.00540        1.65667
H          4.64478        3.69403       -2.14869
H          3.46897        1.67803       -3.10233
