20

C          0.96174        0.07137        0.01084
C          2.48145        0.07479        0.03236
C          3.07021        0.13233       -1.37518
C          4.59412        0.13305       -1.33168
O          5.09430        0.15111       -2.67939
C          6.41633        0.25387       -2.92316
N          7.28620        0.34380       -1.89834
N          6.79767        0.25289       -4.14853
H          0.56923        0.03127        1.03241
H          0.57810       -0.79781       -0.53290
H          0.57276        0.97565       -0.46685
H          2.83400       -0.82787        0.54456
H          2.82961        0.93468        0.61591
H          2.71871        1.02967       -1.90052
H          2.72032       -0.72081       -1.97020
H          4.95140       -0.77723       -0.83675
H          4.95129        1.01795       -0.79286
H          7.03925       -0.05257       -1.00602
H          8.23504        0.13821       -2.19028
H          5.93951        0.19175       -4.70681
