19

C          1.07443        0.00775       -0.09617
C          2.58944       -0.01619        0.01817
C          3.13813        1.10580        0.89325
C          4.55213        0.63440        1.19414
C          4.41023       -0.87487        1.40997
C          3.12386       -1.29064        0.68137
C          5.62802       -1.62005        0.88837
N          6.63829       -2.23824        0.45566
H          0.73761        0.93605       -0.56884
H          0.59711       -0.06124        0.88700
H          0.71922       -0.83145       -0.70311
H          3.02395        0.06853       -0.98684
H          2.56468        1.20098        1.82334
H          3.12779        2.07430        0.38395
H          4.97125        1.13597        2.07247
H          5.20733        0.85918        0.34279
H          4.30767       -1.09223        2.48035
H          2.40441       -1.67348        1.41631
H          3.27800       -2.08277       -0.05995
