18

C          0.94640        0.00207        0.27159
C          2.45014        0.05989        0.02012
C          3.07104       -1.29016       -0.30453
C          2.64596       -1.73248       -1.68656
N          2.83899       -0.65738       -2.62284
C          2.68288        0.65437       -2.32170
N          2.54912        1.57993       -3.19900
O          2.69284        1.02195       -1.02269
H          0.70243       -0.71460        1.05911
H          0.39496       -0.26240       -0.63566
H          0.58321        0.99042        0.57305
H          2.93357        0.44975        0.92318
H          2.80184       -2.04385        0.44444
H          4.16521       -1.19110       -0.28834
H          1.59415       -2.03674       -1.69453
H          3.23444       -2.60248       -1.99800
H          2.73093       -0.90857       -3.59588
H          2.56651        1.17021       -4.13049
