17

C          1.14215        0.02276       -0.04302
C          2.66851       -0.01313       -0.07384
C          3.17701       -1.44303        0.09040
C          3.16710        0.57549       -1.33045
C          3.56551        1.06947       -2.35161
C          4.01508        1.68404       -3.56764
N          5.07258        1.12972       -4.04604
O          5.43557        1.79441       -5.22594
H          0.76128       -0.38866        0.89773
H          0.71001       -0.55720       -0.86676
H          0.77300        1.05068       -0.13375
H          3.04370        0.58398        0.76631
H          2.83293       -2.08891       -0.72555
H          2.82593       -1.87416        1.03424
H          4.27241       -1.47155        0.09598
H          3.47276        2.53853       -4.00020
H          6.23389        1.30653       -5.50248
