21

C          0.96044        0.16184        0.20076
N          2.41528        0.11868        0.14928
C          2.91608        0.67673       -1.11108
C          4.45977        0.71048       -1.17633
C          5.07458       -0.69041       -1.06965
C          4.90991        1.35321       -2.46976
C          4.66706        2.81049       -2.77242
O          5.93794        2.34081       -2.30429
H          0.61726       -0.26351        1.14999
H          0.51139       -0.42003       -0.61181
H          0.59200        1.19231        0.15061
H          2.71964       -0.84890        0.24750
H          2.53660        1.69748       -1.22147
H          2.52765        0.09524       -1.95914
H          4.82810        1.30656       -0.32962
H          4.69006       -1.35023       -1.85676
H          4.86381       -1.15470       -0.10241
H          6.16379       -0.64464       -1.18338
H          4.99446        0.66728       -3.30172
H          4.06369        3.39892       -2.09268
H          4.60082        3.11119       -3.81038
