17

C          0.84519        0.07404        0.19345
N          2.25566       -0.10430       -0.09423
C          2.87186       -1.22807        0.63676
C          2.34818       -2.62950        0.27813
C          3.36656       -3.19511       -0.66201
C          4.50415       -2.50059       -0.72142
C          4.31720       -1.34378        0.16847
O          5.21634       -0.55552        0.42720
H          0.50000        1.00462       -0.26819
H          0.64909        0.13912        1.27061
H          0.24369       -0.73039       -0.23515
H          2.77008        0.74365        0.15484
H          2.84646       -1.06507        1.72184
H          1.35131       -2.62241       -0.16893
H          2.29843       -3.25843        1.17610
H          3.18454       -4.09761       -1.23072
H          5.38944       -2.67929       -1.30535
