16

C          1.09204       -0.06972       -0.07905
N          2.54237       -0.14681       -0.03204
C          3.26293        1.11491        0.07871
C          3.21312       -1.32497       -0.26631
N          2.69781       -2.49228       -0.43273
O          4.56242       -1.21806       -0.22028
C          5.19010       -1.66157       -1.33526
O          4.75588       -1.71638       -2.47600
H          0.71904        0.94958        0.06460
H          0.65658       -0.68891        0.71239
H          0.71991       -0.42194       -1.04696
H          2.59310        1.97212        0.20282
H          3.86209        1.29489       -0.82065
H          3.92922        1.09448        0.94782
H          1.68232       -2.42522       -0.41739
H          6.23368       -1.89754       -1.07425
