14

C          1.00177       -0.06360       -0.07933
C          2.49592       -0.08909       -0.07719
C          3.24788        1.07784       -0.07603
N          4.60112        1.08621       -0.07411
N          5.27171       -0.09366       -0.07328
C          4.56593       -1.23839       -0.07445
O          5.30249       -2.38067       -0.07350
C          3.19139       -1.29461       -0.07645
H          0.61782        0.96192       -0.07842
H          0.61357       -0.56773        0.81152
H          0.61617       -0.56526       -0.97270
H          2.78882        2.06084       -0.07658
H          6.20649       -2.01734       -0.07203
H          2.68208       -2.25091       -0.07735
