20

C          0.95367        0.07597       -0.16931
C          2.45280       -0.02771       -0.01008
N          2.90901       -0.05177        1.39435
C          3.29323       -0.81802       -1.00530
N          2.71499       -1.56794       -2.12291
C          3.29790        0.68568       -1.05102
C          4.55614        1.41755       -0.71866
O          4.31163        2.82019       -0.75961
H          0.44818       -0.66484        0.45991
H          0.61908       -0.07996       -1.19875
H          0.61441        1.07123        0.13808
H          2.40854       -0.76165        1.92790
H          2.70825        0.84173        1.84481
H          4.18383       -1.29529       -0.59650
H          1.95278       -1.06483       -2.57143
H          2.32241       -2.44873       -1.79198
H          2.78923        1.15088       -1.88812
H          5.33919        1.18544       -1.44826
H          4.94538        1.17173        0.27362
H          4.18167        3.05529       -1.69416
