21

C          1.08225        0.02899       -0.00288
C          2.60040       -0.02011        0.08110
C          3.18103        1.04132        0.99233
O          4.49926        0.57611        1.29690
C          4.41262       -0.85505        1.45148
C          5.73345       -1.47396        1.02837
C          3.14693       -1.31434        0.68797
N          3.31086       -2.36247       -0.32213
H          0.75074        0.98171       -0.42760
H          0.62580       -0.07133        0.98835
H          0.69584       -0.77793       -0.63319
H          3.02060        0.12136       -0.92393
H          2.62330        1.14647        1.93012
H          3.24283        2.02010        0.50775
H          4.27071       -1.05389        2.52125
H          5.97225       -1.23267       -0.01254
H          5.72494       -2.56128        1.15280
H          6.55117       -1.06725        1.63417
H          2.44117       -1.70467        1.43281
H          3.97988       -2.05162       -1.02800
H          2.43234       -2.50218       -0.81992
