19

C          0.91482        0.71724       -0.77385
C          2.40169        0.74429       -0.91791
C          3.13946       -0.34271       -1.19613
C          4.63883       -0.33091       -1.27247
C          5.15192       -0.88511       -2.59410
C          4.83966       -0.12448       -3.86277
N          5.88044       -1.96444       -2.56381
O          6.32622       -2.31722       -3.84176
H          0.54593        1.72512       -0.55184
H          0.61710        0.06736        0.05524
H          0.43338        0.37976       -1.69539
H          2.88699        1.70279       -0.75174
H          2.64949       -1.30475       -1.34204
H          5.03413       -0.94226       -0.45337
H          5.04267        0.68062       -1.15401
H          4.19347        0.73174       -3.65738
H          4.33338       -0.78425       -4.57348
H          5.77040        0.24180       -4.30511
H          6.89346       -3.08970       -3.65931
