20

C          1.08961       -0.09841       -0.10040
C          2.60775       -0.10097       -0.11674
C          3.16896       -1.10595       -1.11468
O          4.59992       -1.06588       -1.04401
C          5.21584       -2.04597       -1.73456
N          6.45059       -2.33738       -1.50607
N          6.89811       -3.41000       -2.20448
C          8.28662       -3.79097       -1.98136
H          0.71983        0.64909        0.60882
H          0.70065       -1.07669        0.20188
H          0.68624        0.14100       -1.08954
H          2.99070       -0.32666        0.88618
H          2.98041        0.90163       -0.36221
H          2.85186       -0.85280       -2.13473
H          2.81953       -2.11706       -0.86646
H          4.56987       -2.55243       -2.47105
H          6.71447       -3.34770       -3.20794
H          8.64310       -3.46748       -0.99768
H          8.93516       -3.35201       -2.74554
H          8.37933       -4.88002       -2.03009
