16

C          1.10074       -0.11929        0.05123
N          2.55594        0.04595        0.02478
C          2.96186        1.03650       -0.97544
N          3.10472        0.31790        1.30130
C          2.75131        1.42550        2.06761
O          1.93042        2.29305        1.80554
C          3.48146        1.47597        3.39295
O          4.37908        2.27466        3.60401
H          0.73761       -0.44933       -0.92847
H          0.56948        0.80142        0.31262
H          0.81910       -0.89636        0.77051
H          2.59815        0.74850       -1.96827
H          4.05453        1.08145       -1.04092
H          2.58759        2.04110       -0.75286
H          3.85729       -0.28886        1.61243
H          3.15290        0.70867        4.10905
