16

C          1.13308        0.08888        0.05557
C          2.65104        0.03274        0.08957
O          3.14357        1.11467        0.89723
N          4.30260        0.61372        1.53532
C          4.46921       -0.73324        1.31398
O          5.48406       -1.36107        1.57322
C          3.18185       -1.25591        0.72313
N          3.39390       -2.36817       -0.21666
H          0.79829        1.03297       -0.38792
H          0.71889        0.05908        1.06972
H          0.71150       -0.73862       -0.52205
H          3.04939        0.17361       -0.92367
H          5.07594        1.23497        1.73738
H          2.54823       -1.59017        1.55236
H          4.18731       -2.16097       -0.82422
H          2.58024       -2.49347       -0.81415
