16

C          1.18451        0.00216        0.29083
N          2.59527       -0.01389       -0.04888
N          3.27923       -1.25761       -0.06183
C          4.26300       -1.24070       -1.13976
C          5.22307       -0.09685       -0.86466
O          4.55619        1.16240       -0.66456
C          3.24765        1.20981       -0.26000
O          2.68469        2.29569       -0.13542
H          0.78158       -1.01261        0.35891
H          0.64417        0.54995       -0.48827
H          1.04817        0.52037        1.24405
H          2.61056       -2.00935       -0.23806
H          3.75698       -1.10150       -2.10257
H          4.80361       -2.19117       -1.17527
H          5.89154        0.02952       -1.72285
H          5.84673       -0.29274        0.01448
