18

C          1.11314        0.11830       -0.07982
C          2.63118        0.15459       -0.10167
N          3.05784        1.32385       -0.87718
C          4.33227        1.42810       -0.94516
N          4.84642        2.47643       -1.64005
C          6.19368        2.70783       -1.79167
C          6.51818        3.93426       -2.60308
O          7.07492        1.99558       -1.31925
H          0.75912       -0.74476        0.49231
H          0.70863        0.04748       -1.09496
H          0.70651        1.02557        0.37919
H          3.00778       -0.76882       -0.55756
H          3.00561        0.21666        0.92701
H          5.06366        0.73961       -0.48764
H          4.16061        3.09335       -2.04972
H          5.61619        4.44912       -2.94474
H          7.10206        3.63825       -3.47895
H          7.10046        4.62535       -1.98745
