17

C          3.58792        1.82831       -3.42371
C          3.01809        0.76421       -2.55156
C          3.40706        0.66169       -1.27420
C          3.35056       -0.66226       -0.61531
O          2.69630       -1.61069       -1.03012
N          4.26099       -0.67573        0.43437
C          5.08631       -1.83616        0.63979
C          4.03111       -1.42693        1.62233
H          3.64461        2.79961       -2.92516
H          3.01475        1.92892       -4.34828
H          4.60446        1.51615       -3.69297
H          2.46864       -0.04256       -3.03168
H          3.98249        1.43676       -0.78351
H          6.11901       -1.60562        0.85340
H          4.90546       -2.67669       -0.02111
H          4.31110       -0.90470        2.51515
H          3.10083       -1.97644        1.62882
