16

C          1.14116       -0.22780       -0.00437
C          2.59285       -0.01109       -0.28510
N          3.40155       -1.00389       -0.47625
N          4.72807       -0.84223       -0.68545
C          5.33419       -0.31333        0.54401
C          5.16695        0.53726       -0.69092
C          4.18273        1.63379       -0.80805
O          2.90886        1.30399       -0.25987
H          0.87019       -1.27070       -0.19228
H          0.54019        0.41269       -0.65551
H          0.93150        0.01313        1.04198
H          6.31895       -0.70366        0.76853
H          4.70447       -0.14564        1.40854
H          6.06066        0.74443       -1.26758
H          4.03143        1.90402       -1.85910
H          4.55109        2.52460       -0.28969
