19

C          1.48851        0.01246        0.30882
C          2.95975        0.10818       -0.05709
C          3.61183       -1.23680       -0.45660
N          4.77681       -0.92149        0.38806
C          3.99517        0.11131        1.09972
C          4.67564        1.41661        1.06073
C          4.30286        2.10382       -0.02478
C          3.30075        1.37626       -0.87180
H          1.28778       -0.84701        0.95629
H          0.87553       -0.09933       -0.59341
H          1.15139        0.91078        0.83654
H          3.83274       -1.36683       -1.51979
H          3.07514       -2.12884       -0.11031
H          5.55629       -0.53351       -0.14420
H          3.63288       -0.19523        2.08560
H          5.37913        1.75531        1.80914
H          4.67193        3.08999       -0.27353
H          3.72927        1.12646       -1.84952
H          2.41959        2.00730       -1.03026
