18

C          1.16306       -0.05977        0.00586
C          2.49305        0.04555       -0.02675
O          3.10588        1.20527       -0.40183
C          4.53377        1.10119       -0.43353
C          5.11147        2.43645       -0.91108
N          6.57150        2.37590       -1.06904
N          7.17408        3.55845       -1.33556
C          8.46299        3.52808       -1.26624
H          0.68193       -0.98369        0.30410
H          0.53362        0.77938       -0.26876
H          3.14571       -0.77637        0.24150
H          4.83401        0.29511       -1.11503
H          4.90494        0.87679        0.57498
H          4.84109        3.21627       -0.18871
H          4.64539        2.71808       -1.86294
H          6.99177        1.87534       -0.28681
H          9.03742        4.44557       -1.46014
H          9.04236        2.62117       -1.02042
