15

C          1.04306        0.24721       -0.74492
C          2.00030        0.12101        0.40590
C          0.73439        0.92579        0.56522
C         -0.36539        0.42523        1.44773
O         -1.43994        1.36569        1.40689
N         -1.05486        2.65258        1.85241
C          0.07096        3.06607        1.37294
O          0.93655        2.34986        0.61707
H          0.47519       -0.63274       -1.02472
H          1.32873        0.87082       -1.58409
H          2.94016        0.66141        0.34190
H          2.07431       -0.83342        0.91041
H         -0.02607        0.30871        2.48281
H         -0.75407       -0.53853        1.10539
H          0.46248        4.07665        1.56209
