23

C          0.98620       -0.03862        0.05258
N          2.44194       -0.10307        0.06688
C          2.97934       -0.04114       -1.29787
C          4.52284       -0.06127       -1.32669
C          5.10743       -1.32708       -0.69296
C          5.02792        0.06041       -2.77429
O          4.58138        1.29188       -3.33998
C          5.00742        1.44049       -4.68720
H          0.60957       -0.07790        1.07942
H          0.55365       -0.88085       -0.49678
H          0.63373        0.89814       -0.39164
H          2.72886       -0.97252        0.51262
H          2.62491        0.88124       -1.77351
H          2.59413       -0.88435       -1.88543
H          4.88338        0.81082       -0.76473
H          4.72226       -2.22845       -1.18168
H          4.87133       -1.38915        0.37369
H          6.19937       -1.33612       -0.78061
H          4.65488       -0.77565       -3.37872
H          6.12429        0.04018       -2.79058
H          4.64078        2.40073       -5.05985
H          4.59125        0.64266       -5.30981
H          6.09995        1.43564       -4.74744
