14

C          0.98328        0.01801       -0.08336
C          2.45722        0.14348       -0.08931
C          3.24064        1.22020       -0.16132
N          2.99082        2.55716       -0.25554
C          4.58993        0.64598       -0.10742
N          4.63864       -0.63902       -0.01794
C          3.32904       -1.05063       -0.01524
O          2.91636       -2.19539        0.04067
H          0.49326        0.99687       -0.09457
H          0.64673       -0.51172        0.81323
H          0.64173       -0.53873       -0.96190
H          2.05376        2.83211        0.02832
H          3.71599        3.15806        0.13049
H          5.46788        1.30800       -0.13657
