19

C          2.73207       -1.15631        0.65934
N          2.35892        0.01187       -0.12837
C          3.21103        1.15338        0.24353
C          2.82123        2.38691       -0.59006
O          2.73902        3.19793        0.62120
C          2.61884        1.96873        1.41349
C          3.46073        2.05183        2.67748
O          3.05507        3.18121        3.44751
H          2.15721       -2.02327        0.31987
H          2.52408       -1.00769        1.72370
H          3.79293       -1.39879        0.53434
H          1.35575        0.17671       -0.04123
H          4.28944        0.96573        0.27179
H          1.85413        2.36988       -1.10525
H          3.59478        2.75093       -1.27178
H          1.55898        1.78747        1.63995
H          4.52540        2.16521        2.44971
H          3.33201        1.15416        3.28896
H          3.04815        3.93552        2.82587
