17

C          1.05819        0.07536       -0.04281
C          2.58292        0.08116        0.04126
N          3.03431       -1.17274        0.70648
C          3.43203       -0.79564        2.07806
C          3.59123        0.68234        2.05711
C          3.11310        1.16590        0.90935
C          3.12821        2.57824        0.51636
O          2.71270        2.95927       -0.57092
H          0.70776       -0.76147       -0.65747
H          0.68451        0.99969       -0.49656
H          0.59427       -0.01943        0.94568
H          3.01264        0.13176       -0.96609
H          3.87232       -1.48783        0.21862
H          4.36511       -1.29595        2.35479
H          2.65218       -1.08751        2.78897
H          4.02430        1.25278        2.86441
H          3.54884        3.27759        1.25701
