19

C          1.21369       -0.05935        0.16398
N          2.64601       -0.02887        0.30335
C          3.49840        1.05460       -0.20816
C          4.40134       -0.02354       -0.85643
C          5.81802       -0.11012       -0.30919
C          4.37019       -0.00491       -2.38424
C          3.39569       -1.02717       -0.25199
O          3.18044       -2.21666       -0.36146
H          0.81348        0.95056        0.28415
H          0.79860       -0.71694        0.93082
H          0.94489       -0.45021       -0.82264
H          3.95217        1.62804        0.60766
H          2.98242        1.73758       -0.88988
H          6.41365        0.74782       -0.64030
H          6.31846       -1.02005       -0.65745
H          5.83071       -0.11944        0.78601
H          4.93066        0.84937       -2.77752
H          3.34265        0.06880       -2.75996
H          4.80549       -0.92236       -2.79367
