17

C          0.96208       -0.07608        0.04149
C          2.47191       -0.15459       -0.14166
N          3.18558        0.90636        0.61091
C          4.15256       -0.08075        1.12771
C          3.19666       -1.22481        0.73494
O          3.78000       -2.38362        0.09241
C          2.84917       -0.09277       -1.54542
C          3.13349       -0.04262       -2.71104
H          0.68029       -0.06415        1.10057
H          0.46945       -0.94146       -0.41675
H          0.54782        0.82837       -0.41987
H          2.62248        1.33736        1.34315
H          4.35944        0.00590        2.19874
H          5.10784       -0.07819        0.59061
H          2.59081       -1.55739        1.58853
H          4.27948       -2.02655       -0.66383
H          3.36820        0.01021       -3.74933
