18

C          1.38009       -0.32563       -0.29105
C          2.78963        0.03915        0.04812
C          3.73695       -1.01572        0.57583
C          3.92695       -0.47582       -0.81129
N          4.82029        0.64792       -1.13354
C          4.30361        1.78757       -0.55624
N          4.77937        2.97589       -0.68970
C          3.07579        1.50362        0.30161
H          1.28747       -1.37334       -0.58915
H          1.01501        0.29229       -1.11759
H          0.73049       -0.15668        0.57190
H          3.37337       -2.03561        0.66756
H          4.44705       -0.74120        1.34413
H          3.70481       -1.11705       -1.65523
H          5.81766        0.52911       -1.00794
H          5.55803        2.94089       -1.35381
H          2.25327        2.15885       -0.00457
H          3.31722        1.68603        1.35316
