20

C          0.98758        0.01155       -0.11819
C          2.49054        0.00684        0.07532
C          3.17838       -1.02393        1.02759
C          2.48754       -1.23205        2.39542
N          2.54191       -0.02092        3.24381
C          2.47615        1.20164        2.41317
C          3.17440        1.02171        1.04561
N          4.29956        0.00049        1.12007
H          0.68022       -0.84284       -0.72983
H          0.67432        0.92350       -0.63669
H          0.43580       -0.03994        0.82368
H          2.95540        0.01854       -0.92502
H          3.46296       -1.96561        0.54760
H          2.98483       -2.04626        2.93556
H          1.44702       -1.54321        2.25647
H          3.44088       -0.01997        3.72490
H          2.96010        2.01469        2.96661
H          1.43198        1.50098        2.27375
H          3.45556        1.97302        0.58264
H          4.79344       -0.00647        2.00982
