19

C          1.21300        0.77001        0.06465
C          2.57662        0.12989        0.07557
O          3.02087       -0.40843        1.09197
C          3.31948        0.10069       -1.25988
N          4.76847        0.15023       -1.01600
C          5.51646        0.02588       -2.27203
C          7.02754        0.09752       -2.02476
O          7.45309       -0.98087       -1.19646
H          0.82446        0.82998        1.08484
H          0.53335        0.16999       -0.54562
H          1.28526        1.78346       -0.33840
H          3.01363        0.96708       -1.85497
H          3.02834       -0.81892       -1.77818
H          4.99654       -0.63011       -0.39490
H          5.23579        0.83599       -2.95570
H          5.27604       -0.93179       -2.74789
H          7.31431        1.04122       -1.54807
H          7.56393        0.02181       -2.97565
H          7.10648       -0.78909       -0.30760
