17

C          3.65956        1.85158       -3.74873
N          3.87402        1.47813       -5.17603
C          4.88108        0.37980       -5.14966
C          5.70038        0.67494       -3.95619
C          6.92657        0.47818       -3.46296
C          7.03138        1.22295       -2.15051
C          5.68109        1.89265       -2.03631
C          4.95183        1.54591       -3.09842
H          2.85471        1.23411       -3.33545
H          3.38333        2.90641       -3.66396
H          4.32854        2.27699       -5.62113
H          5.46303        0.35881       -6.07458
H          4.35725       -0.57585       -5.03378
H          7.72187       -0.08515       -3.92495
H          7.82948        1.97068       -2.19073
H          7.20866        0.53470       -1.31925
H          5.38780        2.56849       -1.24805
