20

C         -0.56026        1.30715        0.92131
C         -1.86206        0.62812        0.43735
C         -1.00171       -0.18085       -0.57008
C         -0.53940       -1.51153       -0.08079
C          0.73858       -1.71154        0.27093
C          1.81942       -0.66872        0.21600
C          1.47765        0.53958       -0.65266
C          0.03254        0.97677       -0.47917
H         -0.08985        0.79410        1.76770
H         -0.64488        2.36930        1.16444
H         -2.55764        1.32261       -0.05073
H         -2.41470        0.05945        1.18979
H         -1.46108       -0.28139       -1.56060
H         -1.27123       -2.30981        0.00335
H          1.03011       -2.68641        0.65619
H          2.74099       -1.12527       -0.16477
H          2.03203       -0.34209        1.24088
H          1.64283        0.27754       -1.70601
H          2.15997        1.36644       -0.42727
H         -0.19072        1.78203       -1.19594
