17

C         -0.46835        1.14605        1.10606
C          0.21287        1.38718       -0.22224
C          1.35366        0.58554       -0.74954
N          1.63921       -0.61655        0.01162
N          0.85187       -1.71288        0.06755
C         -0.39543       -1.65573       -0.26345
N         -1.28447       -0.66012       -0.60015
C         -1.13104        0.72563       -0.17823
H         -0.87289        2.01107        1.62688
H         -0.09234        0.38324        1.77148
H          0.23967        2.40531       -0.60381
H          2.25375        1.21165       -0.74483
H          1.17401        0.32905       -1.79984
H          2.08564       -0.41695        0.90497
H         -0.91539       -2.63041       -0.27636
H         -2.20236       -0.96982       -0.90149
H         -1.97832        1.33082       -0.49052
