17

C          1.02866        0.04972       -0.01654
C          2.49405        0.26068        0.11100
O          3.29821       -0.48756       -0.80534
C          3.27026        0.93699       -0.98779
C          4.50090        1.58512       -0.66205
C          5.58748        2.23702       -0.35477
C          6.85418        2.99699        0.00344
N          6.72237        4.37937       -0.42529
H          0.69290       -0.71218        0.69317
H          0.74405       -0.27312       -1.02353
H          0.49674        0.98002        0.20619
H          2.82924        0.35137        1.13551
H          2.72368        1.31971       -1.84197
H          7.71123        2.52634       -0.48887
H          7.00929        2.95348        1.08584
H          6.57143        4.39688       -1.43252
H          7.60170        4.86354       -0.25855
