17

C          0.89294       -0.16762       -0.00256
C          2.39206        0.09656       -0.02150
O          2.84019        0.12336       -1.37057
C          2.75936        1.40218        0.65633
C          3.63719        1.16651        1.64702
C          4.01502       -0.24695        1.78235
N          3.02100       -1.22873        2.17005
C          3.18070       -0.96958        0.73530
H          0.35105        0.61107       -0.55166
H          0.49132       -0.20802        1.01597
H          0.66239       -1.11949       -0.49442
H          2.86934        1.04954       -1.65927
H          2.36144        2.36950        0.38964
H          4.05248        1.93221        2.28926
H          5.06215       -0.50333        1.87681
H          2.18661       -0.77335        2.54048
H          3.63939       -1.73670        0.12840
