21

C          0.61569        0.07479       -0.05188
C          2.09085        0.07662        0.14724
C          3.01195       -0.92154       -0.50767
C          2.68436       -1.67776       -1.76282
C          3.07432       -0.70934       -2.89195
C          4.56573       -0.81425       -3.23282
N          2.79483        0.63792       -2.34633
C          3.06302        0.54305       -0.89350
H          0.15826       -0.67874        0.59616
H          0.31420       -0.13226       -1.08043
H          0.20701        1.05057        0.22902
H          2.32508        0.34061        1.17529
H          3.85319       -1.32335        0.04014
H          1.61574       -1.90979       -1.80611
H          3.23567       -2.62320       -1.82004
H          2.48934       -0.90018       -3.79969
H          5.20572       -0.61530       -2.36466
H          4.83923       -0.09852       -4.01610
H          4.81049       -1.81939       -3.59358
H          1.80790        0.84764       -2.49449
H          3.91868        1.11877       -0.55496
