19

C          0.95756        0.07763       -0.00282
C          2.48866        0.06599       -0.03203
C          2.98758       -0.80583       -1.18765
O          2.94106        1.40800       -0.25859
C          3.06052       -0.42227        1.31158
O          2.62104       -1.75520        1.58346
N          3.14804       -2.16157        2.81693
C          2.73256       -3.35627        3.06683
H          0.55173        0.47692       -0.93931
H          0.59110        0.73211        0.79622
H          0.54237       -0.92359        0.15055
H          2.61205       -0.43406       -2.14825
H          2.67552       -1.84951       -1.07939
H          4.08123       -0.77436       -1.25130
H          2.58923        1.70126       -1.11661
H          2.73843        0.24411        2.12211
H          4.15758       -0.39512        1.28655
H          3.03703       -3.86098        3.99628
H          2.07105       -3.91720        2.38477
