18

C          1.00740        0.03031        0.05981
C          2.53024        0.13303        0.07598
C          3.01052        1.47062        0.67032
N          2.76786        2.62906       -0.17695
N          3.40626        2.88579       -1.33548
C          4.05753        1.94934       -1.96170
C          4.19497        0.48361       -1.60801
O          2.97196       -0.13022       -1.25973
H          0.58682        0.16431        1.06115
H          0.69583       -0.94903       -0.32011
H          0.56744        0.77684       -0.61028
H          2.91954       -0.67632        0.70591
H          4.08181        1.42101        0.89999
H          2.51659        1.63455        1.63569
H          1.77861        2.87673       -0.23050
H          4.60579        2.26470       -2.86623
H          4.96977        0.33755       -0.84808
H          4.55224       -0.01813       -2.51418
