20

C          1.03032        0.17109        0.05791
N          2.48548        0.07636        0.07546
C          2.97064       -0.96406        1.00283
C          2.54413       -2.38174        0.62639
C          4.50499       -0.89462        1.04958
C          5.28730       -1.10111       -0.23029
N          5.06905       -0.68355        2.20574
O          6.46468       -0.67665        2.09938
H          0.73083        1.02001       -0.56499
H          0.62317        0.33303        1.06121
H          0.57243       -0.72100       -0.37941
H          2.85846        0.97496        0.38944
H          2.60304       -0.74195        2.01311
H          2.80033       -2.62324       -0.41041
H          1.46548       -2.52132        0.74993
H          3.04582       -3.11695        1.26612
H          4.62353       -1.21917       -1.08955
H          5.90137       -2.00156       -0.13899
H          5.93253       -0.23635       -0.40959
H          6.74543       -0.55043        3.02490
