19

C          1.50019        0.07830       -0.41722
C          2.88284       -0.10871        0.10395
O          3.17881       -1.43727        0.60884
C          4.25406       -1.95993       -0.19660
C          5.09344       -0.75085       -0.60616
C          4.10212        0.36913       -0.63588
C          3.65452        1.07605        0.62119
N          4.40024        0.95644        1.87987
H          1.11455       -0.85449       -0.84138
H          1.45581        0.84707       -1.19558
H          0.83258        0.37910        0.39695
H          3.81137       -2.44169       -1.07627
H          4.82710       -2.70078        0.36715
H          5.58538       -0.91233       -1.56988
H          5.87466       -0.55731        0.13840
H          3.98898        0.84750       -1.59694
H          3.22376        2.06252        0.46391
H          4.53268       -0.03327        2.09437
H          3.82237        1.29959        2.65044
