18

C          1.10708       -0.18145       -0.12181
N          2.56400       -0.20202       -0.18624
N          3.18707       -0.76344        0.87928
C          4.47518       -0.77839        0.77090
C          5.24801       -1.34684        1.88505
O          6.55779       -0.76413        2.03994
C          5.60780       -0.49171        3.07404
C          5.93930       -1.09813        4.38926
H          0.70500        0.34347       -0.99367
H          0.76089        0.33441        0.77941
H          0.70484       -1.19922       -0.12626
H          2.89836        0.74860       -0.36303
H          5.02793       -0.39240       -0.10366
H          5.15885       -2.41689        2.02371
H          5.19659        0.50585        3.15021
H          6.39360       -2.08859        4.28353
H          5.03423       -1.20072        4.99515
H          6.64223       -0.45825        4.93202
