20

C          1.05017        0.12087        0.00864
C          2.54003        0.09707        0.05188
C          3.31613       -0.69046       -0.97088
C          3.34854        0.82086       -1.00221
C          4.59196        1.56636       -0.61969
N          5.62122        1.31234       -1.60070
C          6.88757        1.77122       -1.47414
N          7.87730        1.42550       -2.21478
H          0.64333       -0.58089        0.74385
H          0.66075       -0.15721       -0.97600
H          0.68088        1.12137        0.25355
H          2.90725        0.10268        1.07274
H          2.77423       -1.19741       -1.76212
H          4.19782       -1.22419       -0.63308
H          2.81733        1.31617       -1.80826
H          4.94075        1.25954        0.37314
H          4.37328        2.63938       -0.57862
H          5.45463        0.54169       -2.23442
H          7.03199        2.49750       -0.65590
H          7.55893        0.76160       -2.92265
