17

C          1.06379       -0.07078        0.07225
C          2.58002       -0.03661        0.02956
C          3.17093        1.14630        0.78097
N          4.52225        0.70375        0.99612
O          5.25410        1.50007        1.89794
C          4.54278       -0.66897        1.25425
O          5.40321       -1.30555        1.84094
C          3.24974       -1.24013        0.70898
H          0.64800        0.82684       -0.39723
H          0.68965       -0.11789        1.10001
H          0.68334       -0.94288       -0.46755
H          2.91044        0.00074       -1.01770
H          2.68603        1.30387        1.75191
H          3.16494        2.07616        0.20540
H          6.06663        1.66849        1.38610
H          2.65724       -1.62148        1.54710
H          3.45439       -2.04386       -0.00323
