19

C          0.82268        0.01409       -0.07083
C          2.34129        0.03562        0.00441
C          2.92556       -1.37615       -0.09378
C          4.45523       -1.37254       -0.06326
C          5.05064       -2.75832       -0.19166
O          5.18500       -3.23356        1.15335
N          5.35736       -2.10126        1.98553
C          4.96441       -1.08162        1.30228
H          0.42513        1.03108        0.00412
H          0.39798       -0.57766        0.74642
H          0.48270       -0.41460       -1.01890
H          2.64196        0.50504        0.94768
H          2.73295        0.65840       -0.80822
H          2.58908       -1.83537       -1.03212
H          2.52552       -1.98991        0.72342
H          4.86785       -0.68272       -0.80417
H          6.04974       -2.72768       -0.64113
H          4.42864       -3.45108       -0.76592
H          4.96736       -0.05619        1.69685
