21

C          0.66276        0.94220       -0.34682
N          2.07763        0.96683       -0.70886
C          2.48975       -0.34826       -1.18406
C          3.88209       -0.33389       -1.75407
C          4.12435       -0.61987       -3.04464
C          5.44599       -0.77331       -3.75432
C          6.63349       -1.27962       -2.93670
O          6.39502       -2.59029       -2.43302
H          0.35572        1.92165        0.03259
H          0.45978        0.19975        0.43284
H          0.03730        0.71944       -1.21850
H          2.62485        1.21459        0.11424
H          1.78685       -0.69953       -1.95022
H          2.45948       -1.07302       -0.36204
H          4.69626       -0.13456       -1.06177
H          3.26588       -0.77938       -3.69989
H          5.27854       -1.49524       -4.56463
H          5.70447        0.18249       -4.22739
H          6.87550       -0.61793       -2.10135
H          7.51869       -1.34217       -3.57995
H          5.56192       -2.55276       -1.93127
