17

C          1.01818        0.08655        0.01252
C          2.53718        0.25285        0.04280
N          3.08477        0.17848       -1.31062
C          2.95592        1.56837        0.66962
C          3.69164        1.34142        1.77242
C          3.87557       -0.08870        2.06083
O          2.76382       -0.97296        2.25790
C          3.20723       -0.81141        0.90507
H          0.53730        0.88053       -0.57086
H          0.58923        0.11391        1.02132
H          0.73438       -0.87624       -0.42985
H          2.66154        0.91085       -1.87789
H          2.79197       -0.69825       -1.73882
H          2.70067        2.54227        0.28136
H          4.11117        2.11690        2.39905
H          4.86307       -0.41141        2.36485
H          3.70700       -1.62586        0.40708
