21

C          1.07428        0.03295       -0.08681
C          2.56799        0.03539       -0.13186
C          3.26776       -0.68201       -1.24848
C          3.38179        0.83605       -1.15328
C          2.66183        1.68838       -2.18090
N          3.21398        1.43309       -3.50345
C          4.69611        1.41932       -0.67143
O          5.73803        1.09440       -1.58365
H          0.72739       -0.64478        0.69900
H          0.62955       -0.29778       -1.02791
H          0.69811        1.03486        0.14070
H          2.97722       -0.05994        0.86808
H          2.68538       -1.08902       -2.06855
H          4.12095       -1.29752       -0.98827
H          2.76409        2.75087       -1.93060
H          1.59131        1.47438       -2.21226
H          4.21868        1.62374       -3.47615
H          2.81622        2.09807       -4.16332
H          4.97684        1.04289        0.31709
H          4.63876        2.51126       -0.59937
H          5.80248        0.12271       -1.58963
