16

C          1.09922        1.27451        0.54325
N          2.29305        0.79336        0.63330
N          2.53935        0.25890        1.85302
C          3.97269        0.20287        2.22853
C          3.74241       -1.20150        2.81035
C          2.48889       -1.22365        1.92123
C          4.79710       -2.28323        2.53420
O          4.77960       -3.43390        2.97327
H          0.76976        1.73354       -0.40191
H          0.36556        1.25833        1.36947
H          4.27387        0.96021        2.95976
H          4.67054        0.24115        1.38259
H          3.49170       -1.16343        3.88051
H          2.62367       -1.73113        0.95742
H          1.58882       -1.62060        2.40128
H          5.63134       -1.96991        1.88314
