17

C          0.97832        0.07938       -0.08038
N          2.43284        0.03596       -0.09430
C          3.13941        1.21389       -0.09132
C          4.47191        1.24795       -0.10313
C          5.31124        0.02057       -0.12218
C          4.54179       -1.29177       -0.13147
C          3.02773       -1.21853       -0.10683
O          2.36998       -2.26330       -0.10217
H          0.60144        1.10653       -0.07776
H          0.61469       -0.43955        0.81255
H          0.59790       -0.44016       -0.96609
H          2.56645        2.13781       -0.07762
H          4.98298        2.20702       -0.09880
H          5.97868        0.03960        0.74819
H          5.96591        0.05845       -1.00169
H          4.84890       -1.89104        0.73477
H          4.82034       -1.86223       -1.02638
