18

C          1.62846       -0.22421       -0.46304
C          2.97517        0.13585        0.07259
C          3.80750       -0.96293        0.71646
C          4.26357       -0.35253       -0.57492
C          5.18805        0.79979       -0.57731
N          6.38660        0.73020       -1.00982
N          4.52764        1.87414       -0.07325
C          3.19273        1.59898        0.41518
H          1.59140       -1.25690       -0.82218
H          1.35052        0.43314       -1.29264
H          0.87861       -0.11359        0.32713
H          3.44593       -1.98586        0.67193
H          4.36565       -0.73866        1.61637
H          4.18427       -0.91872       -1.49444
H          6.60774       -0.23526       -1.27748
H          4.75145        2.77383       -0.47758
H          2.46882        2.25247       -0.07768
H          3.14430        1.75393        1.49821
