19

C          0.99399       -0.05941        0.16733
N          2.44892       -0.01551        0.08110
C          3.00729        0.81770        1.15246
C          4.55266        0.86865        1.16099
C          5.12267        1.44874       -0.13218
O          4.99805        1.74361        2.22365
C          5.02340        1.20593        3.46746
O          4.70854        0.07012        3.78176
H          0.60125       -0.69461       -0.63193
H          0.55738        0.93795        0.05148
H          0.66496       -0.48657        1.12007
H          2.71231        0.36327       -0.82751
H          2.66509        0.43928        2.12314
H          2.62022        1.84241        1.07394
H          4.97238       -0.13527        1.30504
H          4.73388        2.45714       -0.31311
H          4.89374        0.82263       -0.99894
H          6.21195        1.54177       -0.05878
H          5.37233        1.97023        4.17846
