14

C          1.18736       -0.00373       -0.02106
N          2.62708        0.07247        0.07483
N          3.22179        1.26827        0.18894
C          4.51593        1.25145        0.16937
C          5.29890        2.51726        0.35054
O          4.76912        3.60005        0.52518
C          6.80950        2.49957        0.36853
O          7.42007        1.45424        0.19240
H          0.87784       -1.03920       -0.18599
H          0.79517        0.60137       -0.84404
H          0.73570        0.33428        0.91585
H          3.14663       -0.74202       -0.24020
H          5.11736        0.33555        0.04948
H          7.28532        3.47728        0.51738
