20

C          1.04556        0.01188        0.02418
C          2.58458        0.02290        0.02113
C          3.10981       -1.26431       -0.63921
C          3.11117        1.27883       -0.72395
N          2.71602        1.36313       -2.13454
C          3.10225        0.09038        1.46896
N          2.73409       -0.92259        2.30481
O          3.82988        0.98186        1.89788
H          0.64007       -0.01666       -0.99311
H          0.64769        0.90356        0.52198
H          0.64425       -0.85982        0.55259
H          2.74642       -1.37074       -1.66680
H          2.79120       -2.16028       -0.09516
H          4.20533       -1.27251       -0.66292
H          4.20666        1.31649       -0.67349
H          2.74557        2.18278       -0.22035
H          3.18142        0.62706       -2.66392
H          3.07067        2.24003       -2.51812
H          2.11021       -1.67107        2.04150
H          3.06602       -0.88131        3.25984
