15

C          1.53953       -0.86156        0.52507
C          2.36952        0.08280        0.05532
C          2.55668        0.25122       -1.44368
N          2.71195        0.39094       -2.68723
C          3.15531        0.95446        0.97091
C          2.87901        2.46339        0.85556
C          2.84870        2.43019        2.38091
O          2.75064        0.98390        2.37547
H          0.97757       -1.50901       -0.14234
H          1.39975       -1.01538        1.59155
H          4.22417        0.70632        0.91352
H          1.92370        2.74317        0.40076
H          3.68579        3.05578        0.41761
H          1.97692        2.89949        2.84325
H          3.76406        2.76104        2.88069
