17

C          2.19193        1.32687       -0.54362
C          2.49150       -0.06684       -0.03669
N          2.20923       -1.17477       -0.66678
O          1.55999       -0.93121       -1.87876
C          3.21508       -0.16429        1.31969
O          2.92237       -1.38037        1.98816
C          4.69829       -0.10948        1.10957
C          5.50953        0.81283        1.64859
H          1.68210        1.33586       -1.50929
H          3.12946        1.88085       -0.64444
H          1.55695        1.83878        0.18491
H          1.35066       -1.83122       -2.19523
H          2.86767        0.65657        1.95597
H          2.96106       -2.07077        1.30046
H          5.13271       -0.88907        0.48786
H          5.13014        1.60020        2.29395
H          6.57890        0.78257        1.47110
