14

O          3.50841       -0.57606       -0.64347
C          2.49541        0.11806        0.06167
C          2.98087        1.13539        1.09520
O          2.17855        1.79148        1.76177
C          4.44880        1.30767        1.27009
C          4.91017        2.18839        2.16390
C          6.40458        2.38327        2.36182
C          7.68648        2.55043        2.53159
H          3.05982       -1.18187       -1.25902
H          1.88077       -0.61996        0.58663
H          1.88084        0.65465       -0.66799
H          5.11015        0.70593        0.65942
H          4.25650        2.79754        2.78209
H          8.73341        2.68814        2.67145
