21

C          1.30597       -0.56164        0.43536
C          2.55927        0.11267       -0.10230
C          3.03816        1.19389        0.82042
N          4.17683        2.02303        0.42637
C          2.86127        2.68692        0.55596
C          2.23117        3.20567       -0.71091
C          2.68684        3.60074        1.75381
O          3.70761        4.59226        1.73452
H          0.98024       -1.35672       -0.24282
H          0.48687        0.15622        0.54441
H          1.49287       -1.01023        1.41711
H          2.35481        0.48950       -1.10890
H          3.34809       -0.64186       -0.20257
H          3.07987        0.85120        1.85001
H          4.41547        1.87563       -0.55645
H          2.51435        2.62884       -1.59738
H          2.53839        4.24216       -0.89325
H          1.14037        3.18415       -0.62521
H          2.76490        3.05471        2.69952
H          1.71268        4.09958        1.73438
H          4.53088        4.09159        1.57235
