19

C          1.99621       -1.31359        0.31907
N          2.50136        0.02288        0.04636
C          3.02409        0.16636       -1.31543
C          4.27721       -0.65622       -1.68122
O          5.43611        0.19813       -1.58585
C          4.89560        1.48041       -1.60305
C          5.84674        2.61923       -1.69620
C          3.57299        1.53860       -1.46260
H          1.52219       -1.32429        1.30553
H          2.79597       -2.05972        0.33564
H          1.24015       -1.61563       -0.41254
H          3.24915        0.23937        0.70707
H          2.22331       -0.01371       -2.04269
H          4.21051       -1.01414       -2.71631
H          4.43457       -1.52946       -1.04313
H          6.87823        2.27771       -1.55613
H          5.63789        3.36595       -0.92438
H          5.77903        3.09460       -2.67805
H          2.97983        2.43880       -1.41486
