13

C          1.07745        0.05697       -0.02696
C          2.56538        0.11253        0.11558
N          3.21083        1.23203        0.08303
C          4.56080        1.14647        0.22043
C          5.21810        0.00161        0.37759
C          4.43605       -1.22802        0.39958
O          4.99567       -2.30980        0.53914
O          3.09681       -1.12161        0.26185
H          0.65764        1.06672       -0.02102
H          0.64812       -0.50675        0.80586
H          0.82010       -0.42993       -0.97132
H          5.10279        2.08888        0.19689
H          6.29033       -0.06493        0.48835
