21

C          3.02227        1.45636       -0.17593
C          2.48720        0.04262       -0.00432
C          2.96337       -0.61544        1.28067
N          2.52631        0.02869        2.53220
C          2.98435       -2.12541        1.29951
C          4.28330       -1.36345        1.25634
C          5.21664       -1.39731        2.42028
O          5.73338       -2.71645        2.55840
H          2.66820        1.88147       -1.12030
H          4.11698        1.46452       -0.18368
H          2.68531        2.11311        0.63216
H          2.79234       -0.55286       -0.87420
H          1.39089        0.06531       -0.01024
H          1.51405        0.14833        2.54037
H          2.92349        0.96213        2.61973
H          2.69461       -2.66723        0.40521
H          2.70439       -2.63001        2.21726
H          4.83798       -1.39807        0.32402
H          4.74927       -1.11346        3.36761
H          6.05898       -0.72192        2.24435
H          4.97662       -3.27575        2.80509
