17

C          1.09379        0.23253       -0.05229
C          2.57472        0.04378       -0.00718
C          3.21984       -1.12294        0.19966
C          2.55016       -2.43903        0.45717
O          2.89502       -3.37839       -0.55881
C          4.71620       -1.05746        0.24515
N          5.36159       -2.24553        0.11691
O          5.34235       -0.01310        0.37869
H          0.86070        1.25573       -0.36552
H          0.65148        0.07901        0.93660
H          0.62818       -0.44505       -0.77401
H          3.15814        0.95511       -0.14530
H          1.45900       -2.36643        0.48754
H          2.87205       -2.84542        1.42148
H          2.51198       -3.03892       -1.38793
H          4.86775       -3.09384       -0.14504
H          6.37017       -2.23242        0.06426
