21

C          1.01605       -0.36535       -0.44423
N          2.41716        0.03431       -0.36486
C          2.85268        0.52884        0.97752
C          4.21678        1.20209        0.99358
C          2.97855        2.03598        1.14126
C          2.43721       -0.30717        2.20692
C          3.00540       -1.72108        2.15946
O          2.84484        0.30784        3.43459
H          0.76415       -0.59931       -1.48314
H          0.34740        0.42892       -0.10041
H          0.82777       -1.27239        0.13524
H          2.58057        0.75597       -1.06854
H          4.76862        1.26882        0.06254
H          4.86045        1.09478        1.85663
H          2.70602        2.68449        0.31726
H          2.77595        2.47466        2.11260
H          1.34359       -0.35309        2.24852
H          4.09898       -1.70672        2.21867
H          2.72327       -2.24891        1.24407
H          2.64621       -2.30089        3.01656
H          3.80555        0.18883        3.50865
