15

C          0.93181        0.02176       -0.04713
C          2.41704        0.07758       -0.04451
C          3.23485        1.14648       -0.04083
C          4.61279        0.71919       -0.03859
C          4.64989       -0.62262       -0.04063
C          3.25108       -1.17589       -0.04499
C          2.78252        2.59762       -0.03915
N          2.40728        3.80146       -0.03775
H          0.48045        1.01863       -0.04608
H          0.56997       -0.50815        0.83941
H          0.57306       -0.50498       -0.93674
H          5.46333        1.38527       -0.03505
H          5.54387       -1.22849       -0.03938
H          3.06562       -1.77857        0.84934
H          3.06976       -1.77476       -0.94268
