18

C          0.99476       -0.25412       -0.84617
C          2.48615       -0.31190       -0.90450
C          3.22632       -1.05245       -0.06277
C          4.72519       -1.13720       -0.10737
N          5.27638       -0.65333        1.18126
C          5.21023       -2.59225       -0.37840
N          6.41769       -2.89718        0.19229
O          4.62191       -3.41523       -1.07159
H          0.61754        0.41481       -1.62639
H          0.65845        0.13681        0.11908
H          0.55638       -1.24285       -1.01187
H          2.96845        0.27519       -1.68315
H          2.72361       -1.65812        0.68919
H          5.13658       -0.51588       -0.91091
H          4.86731       -1.21485        1.92855
H          4.92666        0.29454        1.32575
H          6.83454       -2.22844        0.83052
H          6.79687       -3.82677        0.08932
