18

C          0.98901       -0.13173        0.07568
N          2.44101       -0.01581        0.04486
C          3.06863       -1.10682        0.80474
C          4.57644       -1.07717        0.78133
C          5.36016       -0.01108        0.54310
C          5.28451       -2.36865        1.00544
N          4.67856       -3.48572        1.25447
O          5.63648       -4.50043        1.38259
H          0.55022        0.64245       -0.56080
H          0.60103        0.00713        1.09203
H          0.65142       -1.10129       -0.30587
H          2.70157        0.87368        0.46567
H          2.72023       -2.05664        0.38434
H          2.74100       -1.06482        1.85189
H          4.93959        0.97034        0.35218
H          6.44396       -0.07534        0.52904
H          6.38660       -2.33388        0.93962
H          5.08419       -5.29496        1.50211
