16

C          0.91879        0.24397       -0.77658
N          2.19103        0.12501       -0.96141
N          2.93237        1.08396       -0.35395
C          4.36541        1.02300       -0.64466
C          5.09191        2.11732        0.18376
C          6.08311        0.99311        0.57713
O          7.23084        0.97526        0.96182
C          5.03048       -0.08773        0.21753
H          0.23284       -0.48075       -1.24249
H          0.45760        1.04118       -0.16702
H          2.53034        2.01589       -0.48702
H          4.63440        1.01080       -1.70694
H          4.55951        2.52581        1.04898
H          5.52963        2.92723       -0.40291
H          4.47886       -0.43880        1.09544
H          5.42664       -0.93780       -0.34167
