19

C          0.97854       -0.25822        0.00352
C          2.48531       -0.03684       -0.02981
C          2.94019        1.42523       -0.24888
O          2.47695        1.84979       -1.54244
C          2.41019        2.43086        0.79510
C          2.87775        2.19787        2.22549
C          4.46019        1.42523       -0.24888
N          5.72116        1.42523       -0.24888
H          0.76338       -1.33018        0.05588
H          0.49167        0.13248       -0.89514
H          0.52584        0.21361        0.88015
H          2.88197       -0.65432       -0.84863
H          2.91939       -0.44035        0.89416
H          1.51803        1.99448       -1.49041
H          1.31368        2.43642        0.77475
H          2.70085        3.44702        0.49497
H          2.65103        1.18534        2.56876
H          2.37456        2.89884        2.89904
H          3.95348        2.36522        2.32447
