15

C          1.16701        0.00575        0.03414
C          2.49618       -0.07532       -0.03164
O          3.11357       -0.83044       -0.98865
C          4.53411       -0.70138       -0.97503
C          5.06320       -1.53015       -2.10199
C          5.38535       -1.03209       -3.30493
C          5.87540       -1.84941       -4.35812
N          6.28582       -2.51087       -5.21870
H          0.67829        0.59649        0.80033
H          0.54336       -0.52350       -0.67914
H          3.14387        0.43789        0.66680
H          4.93819       -1.07896       -0.02780
H          4.82655        0.35017       -1.08919
H          5.16890       -2.59517       -1.90323
H          5.25565        0.02339       -3.52395
