20

C          1.02732       -0.01852       -0.08699
C          2.54475       -0.06370       -0.06491
C          3.15426        1.15092        0.68135
C          3.01876        0.87392        2.22394
C          3.93706       -0.34309        1.81652
C          4.66171        0.76514        0.94958
C          3.15371       -1.11981        0.81695
C          3.06361       -2.44913        0.79298
H          0.68112        0.86088       -0.64053
H          0.59300        0.03657        0.91622
H          0.61989       -0.90957       -0.57611
H          2.94635       -0.12114       -1.08294
H          2.94241        2.15415        0.31136
H          2.02310        0.63028        2.60510
H          3.46778        1.61866        2.89238
H          4.50015       -0.87077        2.58487
H          5.24028        0.41877        0.08698
H          5.26249        1.49808        1.50104
H          3.57812       -3.06635        1.52247
H          2.47349       -2.95455        0.03519
