14

C          0.97423       -0.04989       -0.25531
C          2.31649       -0.18994       -0.89697
C          3.50968       -0.07136       -0.28671
C          3.77412        0.20371        1.08829
N          2.88958        0.38137        2.08126
O          3.69355        0.61675        3.19617
C          4.97483        0.55488        2.75828
N          5.08893        0.30371        1.47844
H          0.19048       -0.14556       -1.01362
H          0.85771        0.93346        0.21035
H          0.81027       -0.83620        0.48780
H          2.30962       -0.40710       -1.96378
H          4.39628       -0.19958       -0.90376
H          5.74930        0.71536        3.49216
