19

C          2.36163       -0.55144       -1.54823
N          2.00747        0.40281       -0.50462
C          3.13916        1.13735        0.09250
C          4.00215        0.19563        0.94004
C          2.63249        2.31109        0.97622
O          2.61672        3.50850        0.16373
C          3.52124        3.20651       -0.83042
C          3.87760        1.93022       -0.93161
H          2.05029       -0.17466       -2.52932
H          1.83030       -1.49218       -1.36973
H          3.42857       -0.78161       -1.60809
H          1.34716        1.08342       -0.88627
H          3.42548       -0.20200        1.78356
H          4.87405        0.71635        1.35061
H          4.38265       -0.65734        0.36968
H          3.30359        2.50328        1.82487
H          1.62916        2.13936        1.38320
H          3.80146        4.03873       -1.45858
H          4.54353        1.52734       -1.67982
