14

C          1.07280        0.09316        0.06390
C          2.57006        0.03349       -0.07983
C          3.27041       -0.40325       -1.13925
C          2.65410       -0.91492       -2.38102
N          3.36928       -1.32504       -3.37665
O          2.50962       -1.74740       -4.39988
C          3.33006        0.53504        1.13724
N          3.96054        0.95111        2.14690
H          0.52434       -0.26559       -0.80750
H          0.75566        1.12643        0.24342
H          0.75522       -0.51363        0.91912
H          4.35778       -0.40332       -1.13904
H          1.55398       -0.93746       -2.43375
H          3.13325       -2.03345       -5.09267
