14

C          1.10737        0.07142       -0.03541
C          2.63186        0.08113       -0.07717
O          3.06650       -1.05961       -0.83833
N          3.37289       -0.62699       -2.15143
C          3.44524        0.65876       -2.11419
C          3.19534        1.28728       -0.80026
C          4.45282        1.75744       -0.22135
N          5.43532        2.16429        0.24229
H          0.74952       -0.83499        0.46485
H          0.67992        0.05942       -1.04426
H          0.71969        0.94238        0.50121
H          3.01692       -0.01886        0.94426
H          3.68932        1.27084       -2.99470
H          2.48216        2.11135       -0.89076
