21

C          1.08763        0.02739       -0.11608
N          2.53932       -0.05907       -0.09221
C          3.18858       -0.80834       -1.16761
C          2.49782       -1.54539       -2.26913
O          1.69226       -2.59549       -1.74336
C          3.27235        0.72208       -1.10275
C          2.55673        1.59380       -2.10583
C          4.57834        1.32059       -0.63189
H          0.68033       -0.68080        0.61180
H          0.60869       -0.18691       -1.07480
H          0.77048        1.02787        0.20150
H          4.06131       -1.36767       -0.84131
H          3.24532       -1.99580       -2.93073
H          1.86000       -0.91565       -2.89228
H          2.20916       -3.03194       -1.04500
H          1.60515        1.19016       -2.45933
H          3.19193        1.73772       -2.98700
H          2.35189        2.57753       -1.67263
H          5.07160        0.70119        0.12563
H          4.41001        2.31126       -0.19501
H          5.26814        1.42934       -1.47541
