19

C          2.27194        1.32185        0.53503
C          2.37611       -0.03583       -0.13767
C          2.92745       -1.07864        0.81964
C          2.11316       -1.48978        2.07875
C          2.34023       -2.92800        1.56015
O          2.32078       -4.04749        2.00782
N          2.65255       -2.44169        0.32833
C          3.36939       -3.14419       -0.69470
H          1.88754        2.06367       -0.17220
H          3.24791        1.66330        0.89402
H          1.59107        1.28639        1.39126
H          3.04199        0.04875       -1.00548
H          1.38907       -0.32625       -0.51549
H          3.99547       -0.93106        1.03304
H          1.05912       -1.19869        2.09508
H          2.58800       -1.26630        3.03590
H          3.23849       -4.22276       -0.57475
H          4.43280       -2.89931       -0.63123
H          2.97613       -2.82962       -1.66484
