21

C          0.88955        0.12951        0.00013
C          2.40871        0.06651        0.06065
N          2.94916       -0.19072       -1.27589
C          4.42754       -0.20219       -1.29478
C          5.05012       -1.32324       -0.46570
C          4.89462       -0.31951       -2.75162
C          4.53440       -1.55992       -3.53274
O          5.56407        0.57404       -3.27919
H          0.48208        0.31210        1.00008
H          0.46952       -0.81347       -0.36650
H          0.54827        0.93713       -0.65578
H          2.68736       -0.73255        0.75461
H          2.79207        1.01478        0.45422
H          2.62936        0.55499       -1.89838
H          4.80013        0.76123       -0.92413
H          4.62290       -2.30056       -0.71494
H          4.90438       -1.15588        0.60693
H          6.12964       -1.38344       -0.64285
H          3.80680       -2.17264       -2.99622
H          5.43712       -2.15116       -3.70639
H          4.09113       -1.26321       -4.48733
