18

C          0.97663       -0.08200       -0.02200
C          2.50570       -0.03115       -0.04440
N          2.91831        1.34706       -0.35637
N          4.32059        1.48201       -0.44368
C          4.98506        2.27717        0.46925
O          4.46144        2.89049        1.39164
C          3.05435       -0.50780        1.27801
C          3.85147       -1.57473        1.42924
H          0.56111        0.22489       -0.98890
H          0.55756        0.57709        0.74789
H          0.62150       -1.09871        0.18156
H          2.84769       -0.68849       -0.85445
H          2.59386        1.96987        0.39540
H          4.82306        1.02611       -1.19958
H          6.06864        2.30277        0.27274
H          2.77996        0.06867        2.15994
H          4.16404       -2.17959        0.58420
H          4.21464       -1.85777        2.41257
