20

C          1.00507       -0.24029       -0.08781
C          2.48345        0.08504       -0.11673
C          2.97461        1.45550       -0.58662
N          2.27854        2.49363       -0.96365
O          0.90408        2.29583       -0.93131
C          4.51365        1.62208       -0.59444
C          5.02004        1.92592       -2.00009
N          4.86396        2.69769        0.34471
H          0.85591       -1.26837        0.25960
H          0.55832       -0.16282       -1.08390
H          0.46390        0.41715        0.59981
H          2.98089       -0.65551       -0.75598
H          2.88531       -0.05754        0.89435
H          0.55658        3.16937       -1.19043
H          4.97771        0.69514       -0.24126
H          4.55696        2.82645       -2.41868
H          4.79011        1.09517       -2.67623
H          6.10579        2.07144       -2.00510
H          4.27157        3.50300        0.12426
H          5.82108        3.00195        0.17728
