13

C          3.06581       -1.52252       -0.18872
C          2.51435       -0.11935       -0.12468
O          1.60462        0.15729        0.65782
C          3.11987        0.85921       -0.99247
C          2.89646        2.20846       -1.15104
C          3.80174        2.59328       -2.15380
N          4.53398        1.56534       -2.58755
O          4.10434        0.47247       -1.85309
H          2.43021       -2.19269        0.39776
H          4.07644       -1.53995        0.22819
H          3.07751       -1.88209       -1.22134
H          2.18213        2.81368       -0.61337
H          3.96364        3.57056       -2.58700
