15

C          1.02904        0.06246       -0.10929
C          2.55038        0.01327       -0.16247
C          3.08604       -1.19023       -0.90661
C          3.29716       -0.53629       -2.21354
C          3.56166       -1.33883       -3.44482
O          3.58311       -2.55797       -3.39147
N          3.28546        0.75508       -2.22688
O          3.02879        1.15814       -0.89176
H          0.62629       -0.78826        0.44854
H          0.59304        0.06033       -1.11429
H          0.69654        0.98750        0.37388
H          2.95174        0.05415        0.85563
H          2.39456       -2.03374       -0.95026
H          4.05606       -1.51326       -0.51693
H          3.72368       -0.74786       -4.35934
