21

C          1.02495       -0.02354        0.23127
N          2.47167        0.14521        0.13735
C          2.87431        0.81541       -1.11506
C          2.40207        2.29364       -1.16528
O          2.74338        2.97457        0.04662
C          4.38657        0.75114       -1.14912
C          5.11439       -0.55971       -1.33967
C          5.11513        0.46250       -2.43994
H          0.79435       -0.69951        1.06085
H          0.60227       -0.45972       -0.67966
H          0.52694        0.92713        0.44311
H          2.89657       -0.78332        0.13800
H          2.46784        0.27863       -1.98402
H          1.31487        2.34808       -1.27618
H          2.85919        2.82783       -2.00036
H          2.73620        2.27591        0.73303
H          4.84418        1.46483       -0.46831
H          4.53858       -1.46505       -1.49028
H          6.03012       -0.70640       -0.77720
H          4.54246        0.23772       -3.33224
H          6.03841        0.99872       -2.63198
