21

C          2.68406        1.46193       -0.54308
C          2.55979        0.00221       -0.13450
C          2.78626       -0.22042        1.34055
C          1.87965        0.46800        2.33527
C          0.40751        0.08282        2.16658
N         -0.42947        0.78747        3.13453
C          3.56717       -1.44402        1.78051
O          4.17470       -0.14904        1.71267
H          2.51843        1.56931       -1.61903
H          3.68199        1.84978       -0.31002
H          1.95074        2.08814       -0.02705
H          3.28332       -0.58071       -0.71847
H          1.57093       -0.37576       -0.41616
H          1.99689        1.55509        2.24064
H          2.19717        0.21772        3.35728
H          0.28323       -0.99776        2.29469
H          0.05605        0.33583        1.16269
H         -0.13208        0.56300        4.08236
H         -1.39365        0.46967        3.04976
H          3.87465       -2.17309        1.03985
H          3.39265       -1.86066        2.76460
