16

C          1.19556        1.90575        0.22792
C          2.69166        1.98136        0.27475
O          3.32415        2.72585        1.00892
O          3.23263        1.11761       -0.62279
C          4.65917        1.05296       -0.61709
C          5.28849        2.22216       -1.34267
N          5.99388        2.03688       -2.41527
N          6.54872        3.16105       -2.91348
H          0.77586        2.59671        0.96614
H          0.86777        0.89324        0.47575
H          0.83940        2.19539       -0.76334
H          4.95057        0.12060       -1.10871
H          5.04509        1.02292        0.40849
H          5.13142        3.22408       -0.90338
H          6.88950        2.99564       -3.86218
H          5.90654        3.95326       -2.95823
