19

C          0.99199       -0.04101        0.04541
C          2.50419       -0.03635        0.02150
C          3.21849        0.98259        0.91458
O          4.14872       -0.03353        1.37150
C          3.23371       -1.07978        0.90011
C          3.87373       -2.27746        0.23931
C          4.84721       -2.20247       -0.90663
N          5.30692       -2.51415        0.44248
H          0.59845        0.83304       -0.48362
H          0.60087       -0.02299        1.06756
H          0.60346       -0.93603       -0.45100
H          2.87712       -0.01009       -1.01046
H          2.64242        1.39063        1.75139
H          3.72925        1.79206        0.38598
H          2.63302       -1.42542        1.75496
H          3.22975       -3.14465        0.30673
H          5.12611       -1.23469       -1.30228
H          4.86210       -3.02216       -1.61436
H          5.71341       -1.68449        0.89056
