15

C          1.96826        1.23036        0.24532
C          2.27616       -0.04689       -0.00891
C          2.96180       -0.93580        0.90011
C          3.89007       -0.57637        1.79405
C          4.59198       -1.58474        2.63914
O          3.86962       -2.81311        2.74811
N          3.32498       -3.31621        1.54279
C          2.84916       -2.40934        0.74989
H          1.44999        1.83197       -0.49580
H          2.21442        1.71596        1.18544
H          1.98062       -0.46891       -0.96926
H          4.17362        0.46136        1.92794
H          4.67577       -1.18852        3.65787
H          5.60699       -1.77394        2.27088
H          2.32406       -2.75359       -0.15769
