16

C          1.18961        0.08149       -0.21531
C          2.65313       -0.19055       -0.17814
N          3.18841       -1.29717       -0.60848
N          4.52998       -1.24027       -0.34126
C          5.00288       -0.00710        0.32540
C          5.47533        1.05408       -0.66099
O          4.21195        1.76442       -0.58730
C          3.70137        0.79948        0.37500
H          0.63878       -0.80980       -0.52733
H          0.98788        0.89771       -0.91122
H          0.85675        0.37280        0.78594
H          5.09423       -1.65205       -1.08548
H          5.55892       -0.13156        1.25511
H          5.71074        0.72796       -1.67848
H          6.28944        1.68386       -0.28710
H          3.45498        1.26639        1.33142
