21

C          3.42086        0.16139       -1.09836
C          2.48109       -0.08024        0.07740
O          1.16688       -0.33208       -0.42625
C          2.95804       -1.22228        1.00455
C          2.01529       -1.46886        2.17806
C          2.41567       -2.85455        2.63284
C          2.70737       -3.57189        1.32960
N          3.10629       -2.54431        0.35687
H          3.08332        1.02783       -1.67722
H          3.42654       -0.68805       -1.78941
H          4.44420        0.34838       -0.75922
H          2.41768        0.84132        0.66769
H          1.21577       -1.10713       -1.00775
H          3.94590       -0.94954        1.40035
H          0.96464       -1.46950        1.86588
H          2.13774       -0.72618        2.97250
H          1.62925       -3.34428        3.21505
H          3.32065       -2.80171        3.24953
H          1.80393       -4.07741        0.96935
H          3.49044       -4.32637        1.44824
H          2.50373       -2.61940       -0.45888
