20

C          1.02027       -0.04922        0.27798
C          2.52565       -0.08341        0.02151
C          3.07111       -1.50084        0.15104
C          2.88426        0.47663       -1.35726
C          4.21999        1.22568       -1.47490
O          5.11506        0.62458       -2.39952
N          2.06497        0.26038       -2.34861
N          2.40969        0.78669       -3.54193
H          0.79545       -0.36060        1.30371
H          0.47758       -0.71636       -0.40093
H          0.62493        0.96263        0.13763
H          3.00407        0.55023        0.77788
H          2.67355       -2.15486       -0.63291
H          2.80938       -1.93391        1.12222
H          4.16266       -1.50663        0.06161
H          4.71739        1.27541       -0.50228
H          4.01961        2.25064       -1.80135
H          5.38763       -0.22970       -2.02342
H          1.83394        0.39127       -4.28630
H          3.38997        0.60277       -3.78623
