20

C          1.56431       -0.10295       -0.53589
C          2.96821        0.14212       -0.05131
C          3.58443       -1.03161        0.69156
C          4.17744       -0.60480       -0.61457
C          5.48306        0.06851       -0.54673
C          5.60224        1.40047       -0.45524
C          4.36099        2.24427       -0.41798
C          3.23702        1.57627        0.39436
H          1.42533       -1.12374       -0.91090
H          1.28893        0.59535       -1.33131
H          0.86671        0.03861        0.29867
H          3.07100       -1.98923        0.69059
H          4.12474       -0.83771        1.61082
H          4.01919       -1.21506       -1.49900
H          6.37557       -0.55445       -0.53536
H          6.57395        1.87809       -0.37960
H          4.03288        2.41907       -1.45127
H          4.58963        3.22063        0.01670
H          2.33085        2.18532        0.29301
H          3.49698        1.58095        1.46127
