21

C          0.94598       -0.59058        0.05707
C          2.25996       -0.25596       -0.67739
C          3.42564       -0.77595        0.16659
C          2.36629       -0.52617       -2.23846
C          3.68205        0.07014       -2.75408
C          3.61799        1.41915       -2.03353
C          2.30164        1.20877       -1.29070
N          1.36808        0.62333       -2.35640
H          0.93471       -1.63437        0.38964
H          0.05408       -0.44193       -0.56052
H          0.84040        0.04702        0.94237
H          3.40312       -0.33730        1.17273
H          3.36376       -1.86296        0.27509
H          4.40827       -0.55666       -0.25711
H          2.04100       -1.49301       -2.62324
H          3.68450        0.19004       -3.84199
H          4.55970       -0.51538       -2.46766
H          3.55856        2.25405       -2.74076
H          4.46304        1.58683       -1.36108
H          1.89422        2.03087       -0.70054
H          1.38060        1.11064       -3.25169
