13

C          1.03830       -0.08930        0.02362
C          2.55830       -0.08930        0.02362
C          3.86216       -0.08930        0.02362
C          5.28115       -0.07306        0.02562
C          6.10903        1.01909        0.02420
O          7.39435        0.56040        0.02852
C          7.25140       -0.79595        0.03244
N          6.01048       -1.23072        0.03090
H          0.66518        0.93805       -0.01054
H          0.66517       -0.57339        0.93041
H          0.66517       -0.63256       -0.84901
H          5.97342        2.08980        0.02096
H          8.16281       -1.37709        0.03651
