18

C          1.21533        0.56709        0.46948
C          2.51836       -0.04007        0.00632
C          2.75376       -1.34350        0.21791
N          3.27053        0.82472       -0.74093
C          4.57364        0.91994       -0.75955
C          5.58096        0.06510       -0.02370
N          5.13501        1.94024       -1.52168
O          4.23497        2.52212       -2.42241
H          0.58902       -0.14208        1.02208
H          0.63802        0.91018       -0.39673
H          1.40376        1.42917        1.11738
H          2.05926       -1.94513        0.79580
H          3.62018       -1.85866       -0.17443
H          5.15166       -0.59829        0.72099
H          6.29389        0.71891        0.49146
H          6.13865       -0.52426       -0.76043
H          6.07503        1.80158       -1.89251
H          3.36259        2.32351       -2.00938
