18

C          1.03159       -0.13229       -0.09143
C          2.53818       -0.02382        0.15429
C          3.09751        1.26458       -0.44592
N          2.94812       -0.17049        1.56875
C          2.24940        0.46292        2.59043
O          1.23035        1.13858        2.49052
N          4.18196       -0.78615        1.71493
C          4.75508       -0.93239        2.85837
H          0.82812       -0.22423       -1.16591
H          0.48685        0.75423        0.25137
H          0.60959       -1.00949        0.40863
H          2.99285       -0.86710       -0.38150
H          2.71999        2.15024        0.07533
H          2.83160        1.34954       -1.50540
H          4.19116        1.27979       -0.37531
H          2.67724        0.30250        3.58648
H          5.74708       -1.41505        2.88439
H          4.36384       -0.62421        3.83712
