23

C          0.87152        0.00687        0.15285
C          2.39305       -0.03070       -0.01828
C          2.88835       -1.43586       -0.38806
C          2.55066       -1.82946       -1.82481
C          3.04587       -0.78865       -2.82702
C          2.52849        0.61411       -2.49101
N          3.09220        1.58365       -3.43173
C          2.87710        1.00343       -1.04747
H          0.55441       -0.70285        0.92435
H          0.33963       -0.24525       -0.76919
H          0.54448        1.00437        0.46508
H          2.82829        0.23428        0.95431
H          2.47513       -2.17886        0.30423
H          3.97870       -1.46813       -0.26342
H          1.46753       -1.95883       -1.93293
H          3.00577       -2.80030       -2.05301
H          2.72397       -1.07799       -3.83501
H          4.14401       -0.79590       -2.83150
H          1.44011        0.62864       -2.61906
H          4.10805        1.59860       -3.34503
H          2.77592        2.52108       -3.18598
H          2.45612        1.98885       -0.80999
H          3.96727        1.10168       -0.94927
