18

C          1.08587       -0.01491       -0.02559
C          2.57198        0.03311        0.05536
N          3.38413       -0.74455       -0.87650
C          3.38309        0.71783       -1.01915
C          4.62722        1.47624       -0.66175
N          4.41728        2.89789       -0.82551
C          3.90620        3.67899        0.17518
O          3.56180        3.29209        1.28232
H          0.69204       -0.72332        0.71086
H          0.73019       -0.32401       -1.01416
H          0.66487        0.97105        0.19414
H          2.92690        0.09199        1.07857
H          2.80417       -1.17866       -1.59663
H          2.89013        1.09699       -1.90566
H          5.44219        1.19475       -1.33659
H          4.94619        1.27371        0.36630
H          4.64045        3.32350       -1.71483
H          3.82762        4.73517       -0.13048
