17

C          1.06227       -0.11971        0.09486
C          2.54834        0.15426       -0.06396
C          3.07521        1.22541        0.89593
O          4.49542        1.37395        0.66773
N          4.68044        2.44158       -0.25157
C          3.57810        3.11096       -0.26492
C          2.53446        2.62699        0.67583
O          2.61670        3.42328        1.85370
H          0.77006       -0.97335       -0.52523
H          0.46074        0.73759       -0.22051
H          0.81278       -0.35448        1.13420
H          2.76425        0.42662       -1.10423
H          3.10417       -0.77521        0.11425
H          2.94031        0.90194        1.93413
H          3.41481        4.01031       -0.87416
H          1.52883        2.69109        0.26092
H          3.52285        3.31644        2.20479
