17

C          2.22366        0.64085       -1.29213
C          2.43281       -0.03164        0.05268
N          3.01840       -1.34967       -0.08413
C          4.37790       -1.53428       -0.19561
O          5.19441       -0.61909       -0.18142
C          4.79952       -2.97092       -0.32000
C          4.33952       -3.57631       -1.60784
O          3.55604       -4.52109       -1.65866
H          1.78139        1.63281       -1.15557
H          1.55202        0.05062       -1.92451
H          3.16979        0.75926       -1.82980
H          1.47421       -0.15472        0.56609
H          3.08300        0.58504        0.68220
H          2.39389       -2.14478       -0.17195
H          4.40584       -3.54348        0.52487
H          5.89210       -3.03247       -0.28789
H          4.73968       -3.11925       -2.52842
