17

C          1.11058       -0.22617       -0.49187
N          2.55067       -0.23049       -0.45813
C          3.23257       -1.19108        0.25218
O          2.66202       -2.06834        0.89662
C          4.74365       -1.14391        0.15747
C          5.38295        0.02092       -0.06084
C          5.47206       -2.36946        0.47228
C          6.67496       -2.72899        0.00312
H          0.77339        0.64830       -1.05319
H          0.72081       -0.18798        0.52852
H          0.76237       -1.14066       -0.97902
H          3.04908        0.37123       -1.09677
H          4.86625        0.96226       -0.20457
H          6.46744        0.08127       -0.06008
H          4.95614       -3.05316        1.14785
H          7.24326       -2.11651       -0.68800
H          7.11809       -3.67273        0.30808
