11

C         -0.53274       -5.31223        0.19034
N          0.09617       -6.43294        0.36386
C          1.39821       -6.06122        0.32108
N          2.53191       -6.67653        0.42370
N          3.56697       -5.62492        0.27986
C          2.96040       -4.48106        0.10564
C          1.52768       -4.64173        0.11198
C          0.31390       -4.12084        0.01882
H         -1.62714       -5.20489        0.16582
H          3.43698       -3.50280       -0.03173
H         -0.00945       -3.11074       -0.13806
