18

C          1.02349        0.06785       -0.17425
C          2.54885       -0.06280       -0.08562
C          3.03101       -0.07441        1.37566
O          2.61089        1.09627        2.07300
C          3.05591       -1.27919       -0.85846
C          3.44367       -0.61598       -2.13927
N          3.49691        0.67465       -2.10852
N          3.18578        1.03541       -0.83732
H          0.53236       -0.75696        0.35311
H          0.67491        0.04827       -1.21389
H          0.67196        1.00649        0.26973
H          4.12344       -0.13442        1.44210
H          2.62096       -0.94140        1.90482
H          3.02465        1.84618        1.60841
H          2.29422       -2.04046       -1.04286
H          3.95201       -1.74191       -0.43295
H          3.68147       -1.21306       -3.03106
H          2.64179        1.90096       -0.81708
