16

C          3.52456       -0.19202       -1.06127
C          2.43130       -0.04355       -0.01813
N          2.88140        0.67962        1.15193
C          2.79884        2.03196        1.33142
N          3.26741        2.39337        2.50507
C          3.66749        1.22597        3.10488
C          3.43981        0.14344        2.28177
O          3.65647       -1.15934        2.40979
H          3.14293       -0.72423       -1.93794
H          4.37625       -0.75434       -0.66386
H          3.89348        0.78569       -1.38916
H          2.06927       -1.02541        0.30541
H          1.57642        0.50001       -0.43602
H          2.39403        2.70053        0.58262
H          4.09749        1.23053        4.09739
H          4.06054       -1.29881        3.28547
