19

C          0.37790       -0.79362       -1.44536
C          1.77707       -1.29735       -1.75555
C          2.84607       -0.24900       -1.48565
O          2.56367        0.88474       -1.08982
C          4.29767       -0.68822       -1.63368
N          4.54993       -1.10224       -3.02088
C          5.93320       -1.53786       -3.22103
C          4.80497       -2.53036       -3.19131
H         -0.35802       -1.58722       -1.60723
H          0.11495        0.05274       -2.08852
H          0.29875       -0.46117       -0.40490
H          1.82830       -1.59510       -2.80704
H          1.99320       -2.17009       -1.13028
H          4.49657       -1.46520       -0.88576
H          4.92927        0.17556       -1.39207
H          6.61693       -1.50640       -2.38084
H          6.37001       -1.28642       -4.18016
H          4.71550       -3.19076       -2.33784
H          4.48696       -2.95742       -4.13575
