16

C          1.12622       -0.09944        0.36620
C          2.42311       -0.13622        0.05091
O          3.05276       -1.35176       -0.18757
C          4.02462       -1.23556       -1.23504
C          5.07819       -0.16741       -0.93810
N          4.45375        1.12509       -0.67066
C          3.20738        1.14744       -0.09955
N          2.72880        2.29020        0.27506
H          0.55041       -1.01312        0.45057
H          0.61362        0.84253        0.52606
H          3.50508       -1.03439       -2.18350
H          4.51548       -2.20863       -1.33294
H          5.77187       -0.07422       -1.77842
H          5.65334       -0.44838       -0.05229
H          4.55858        1.80390       -1.41825
H          3.46021        2.99428        0.13834
