22

C          0.94314       -0.17914       -0.12186
N          2.38374       -0.04965        0.03535
C          2.84228        1.36656       -0.00771
C          2.34985        2.20722        1.19757
N          2.75703        1.64094        2.48583
C          4.38884        1.38164       -0.06749
O          4.82560        0.77781       -1.29716
C          6.24604        0.70983       -1.34874
H          0.68991       -1.22999       -0.29371
H          0.56447        0.39759       -0.97127
H          0.41777        0.13061        0.78716
H          2.85529       -0.52364       -0.74290
H          2.46975        1.82092       -0.93653
H          1.25562        2.27758        1.17288
H          2.73341        3.22959        1.12056
H          2.55354        0.63803        2.44989
H          2.18089        2.03164        3.22790
H          4.81620        0.82861        0.77839
H          4.75432        2.41439       -0.03542
H          6.53595        0.25663       -2.30010
H          6.62949        0.08694       -0.53452
H          6.68147        1.71267       -1.29177
