18

C          0.80083       -0.01228       -0.05369
C          2.32985        0.04959       -0.04677
C          2.83038        0.39450       -1.46767
O          4.25309        0.39645       -1.50336
N          2.86619        1.04493        0.91128
C          2.57345        0.69141        2.31022
C          3.11234        1.70405        3.30750
N          3.55940        2.54412        4.13483
H          0.44624       -0.68681       -0.84026
H          0.36311        0.97521       -0.23501
H          0.40662       -0.39334        0.89309
H          2.73797       -0.93350        0.21705
H          2.47822        1.38282       -1.78741
H          2.47862       -0.34253       -2.19304
H          4.53013        0.84836       -0.68203
H          2.46801        1.96343        0.71074
H          3.00944       -0.28519        2.54932
H          1.49331        0.63444        2.47908
