18

C          1.83345        0.75735       -1.00259
C          2.62704       -0.00106        0.02349
N          2.64969        0.20765        1.30503
O          1.80471        1.25565        1.67903
C          3.52290       -1.08141       -0.46494
C          3.30135       -2.49253        0.03232
C          3.04035       -2.15996       -1.40416
N          3.93614       -2.70529       -2.42403
H          1.25581        1.57464       -0.56785
H          1.13979        0.07780       -1.50419
H          2.51823        1.17422       -1.74637
H          1.94717        1.30249        2.64286
H          4.55615       -0.76279       -0.55889
H          2.44407       -2.68744        0.66807
H          4.17457       -3.07943        0.28893
H          1.99405       -2.14861       -1.70094
H          4.90355       -2.73457       -2.10423
H          3.93255       -2.12966       -3.26548
