21

C          0.91241       -0.69523        0.08400
C          2.20858        0.12806       -0.05742
C          2.56714        1.48570        0.81865
C          2.84618        2.19760        2.23958
O          1.40461        1.03568        1.63877
C          4.10791        1.09365        0.76115
C          4.85599        1.11477       -0.57525
N          5.13025        2.11114        0.41313
H          0.92193       -1.51486       -0.64252
H          0.02057       -0.09330       -0.09961
H          0.84498       -1.16442        1.07541
H          2.25314        0.43997       -1.11116
H          2.98754       -0.63965        0.05993
H          2.03723        2.88096        2.53816
H          3.73841        2.83057        2.27924
H          2.97642        1.45335        3.05482
H          0.65691        1.59482        1.35712
H          4.41836        0.35450        1.50064
H          4.34703        1.45384       -1.47355
H          5.61774        0.36498       -0.73696
H          4.68753        3.00938        0.17622
