17

C          1.38645        1.18666        0.33059
N          2.23868        0.05225       -0.13582
C          1.38086       -1.17231       -0.13761
C          0.05994       -0.69237        0.38613
C         -1.32403       -1.03503       -0.03996
N         -2.12247       -0.00673       -0.02006
N         -1.30836        1.07361        0.28461
C          0.03299        0.72404       -0.14678
H          1.69707        2.13297       -0.11868
H          1.43526        1.27264        1.42187
H          3.03699       -0.06241        0.49000
H          1.81435       -1.93378        0.51686
H          1.31206       -1.58519       -1.14855
H          0.06981       -0.73996        1.48719
H         -1.63660       -2.06569       -0.24809
H         -1.65260        1.92775       -0.15765
H          0.03159        0.74802       -1.25087
