16

C          1.03273       -0.02223        0.08982
C          2.50893        0.11075        0.08454
C          3.35754        1.19549        0.08731
O          2.97450        2.47958        0.09741
C          4.68967        0.73921        0.07624
C          4.63784       -0.63394        0.06759
N          5.61254       -1.55399        0.05309
N          3.31971       -1.00600        0.07363
H          0.53755        0.95291        0.09175
H          0.70077       -0.56889        0.97848
H          0.69447       -0.56814       -0.79692
H          2.00667        2.54260        0.10226
H          5.58177        1.34839        0.07394
H          6.59173       -1.28061        0.07694
H          5.45600       -2.55572        0.08669
H          2.99580       -1.96147        0.06759
