19

C          0.93310        0.40108       -1.84913
N          2.39051        0.38116       -1.81606
C          2.87359       -0.82162       -1.11919
C          4.41378       -0.92125       -1.03479
O          4.76129       -2.13365       -0.32185
C          5.28681       -1.77118        0.96664
C          5.54786       -0.31594        0.89117
C          5.05578        0.17077       -0.24635
H          0.59311        1.29129       -2.38740
H          0.51009        0.43598       -0.83973
H          0.53568       -0.47378       -2.37376
H          2.71967        1.20822       -1.31852
H          2.50683       -1.71960       -1.63333
H          2.45532       -0.86101       -0.10416
H          4.85090       -0.98688       -2.03692
H          6.19865       -2.34666        1.14743
H          4.54404       -2.00892        1.73368
H          6.05828        0.25405        1.65339
H          5.10482        1.20060       -0.56647
