14

C          1.14118        0.04954       -0.07114
C          2.64909        0.12319       -0.07124
N          3.19146        1.29257       -0.07504
C          4.51484        1.54516       -0.07519
C          5.54743        0.71604       -0.07284
C          5.43058       -0.73451       -0.06973
N          4.44632       -1.55538       -0.06741
O          3.11227       -1.15743       -0.06699
H          0.70704        1.05367       -0.07032
H          0.80001       -0.48037        0.82274
H          0.80002       -0.47915       -0.96574
H          4.74252        2.61112       -0.07772
H          6.55798        1.10857       -0.07356
H          6.41975       -1.22709       -0.06922
