15

C          1.70075        0.43081       -0.12564
C          2.85089       -0.54797        0.03831
C          2.87342       -1.79236       -0.91734
C          4.24010       -1.37312       -1.23892
C          5.53364       -1.75024       -1.25137
O          6.24405       -0.69465       -0.71531
N          5.33853        0.26109       -0.18987
C          4.15067       -0.15424       -0.61529
H          1.35317        0.76985        0.85720
H          0.84634       -0.04341       -0.62010
H          1.97797        1.31838       -0.70288
H          3.00308       -0.77071        1.10397
H          2.18243       -1.71021       -1.76596
H          2.77229       -2.78432       -0.47583
H          6.09738       -2.65636       -1.40880
