13

C         -1.32157        1.23971        0.00541
N         -2.09951       -0.06174        0.00225
N         -1.33580       -1.09095       -0.00133
C         -0.02184       -0.64012       -0.00113
C          1.22841       -1.17217       -0.00369
N          2.08559       -0.08455       -0.00132
C          1.35942        1.09834        0.00266
C          0.04191        0.73475        0.00277
H         -1.56686        1.80694        0.90689
H         -1.56840        1.81225       -0.89229
H          1.59911       -2.18688       -0.00688
H          3.09598       -0.14361       -0.00236
H          1.85990        2.05721        0.00494
