21

C          0.84958       -0.07707        0.13592
C          2.36974       -0.01467        0.08901
C          2.92777        0.84213       -1.06598
C          2.47230        2.30270       -0.95444
N          4.40278        0.85040       -1.08468
C          4.98080       -0.46506       -1.38605
C          6.49020       -0.34899       -1.40416
O          7.22719       -0.92928       -0.61169
H          0.53268       -0.80143        0.89448
H          0.43892       -0.39470       -0.82656
H          0.41353        0.88881        0.40307
H          2.72010       -1.04757       -0.00856
H          2.74408        0.35696        1.05088
H          2.55949        0.45228       -2.02351
H          2.79369        2.75312       -0.00825
H          1.38272        2.38726       -1.01488
H          2.88269        2.90652       -1.77207
H          4.74579        1.16383       -0.17402
H          4.66081       -0.82338       -2.36946
H          4.72369       -1.21228       -0.62976
H          6.90781        0.30029       -2.19498
