16

C          0.86420        0.22733        0.31593
C          2.31305       -0.10154       -0.00153
N          2.44426       -1.44224       -0.50907
C          3.12644       -1.48087       -1.72390
O          3.53996       -2.50964       -2.24124
N          3.33628       -0.16428       -2.16045
C          2.27673        0.72716       -2.49684
C          2.87413        0.73668       -1.12349
H          0.50103       -0.39052        1.14265
H          0.20812        0.03070       -0.54337
H          0.75038        1.27880        0.58758
H          2.93707       -0.01020        0.89204
H          2.43012       -2.28187        0.05455
H          1.32136        0.25588       -2.67495
H          2.56679        1.49711       -3.19791
H          3.61862        1.46470       -0.83360
