18

C          1.18574       -0.05561        0.08223
N          2.63880       -0.13722        0.06751
C          3.29341        0.48919       -1.06894
N          3.24232       -0.63741        1.17097
C          4.51951       -0.50782        1.29978
O          5.13220       -0.99272        2.41112
C          6.43848       -0.54298        2.58260
C          7.36869       -1.28981        3.17822
H          0.76316        0.36523       -0.83666
H          0.84280        0.56461        0.91570
H          0.75952       -1.05795        0.20208
H          2.59054        0.81843       -1.84008
H          3.97065       -0.22520       -1.55006
H          3.86802        1.36959       -0.76254
H          5.20079       -0.02131        0.58635
H          6.60594        0.47759        2.26360
H          7.14494       -2.29652        3.51723
H          8.36768       -0.90293        3.35137
