19

C          0.98800       -0.08680        0.14166
C          2.50273       -0.13749       -0.03165
C          2.91060       -0.06910       -1.50359
N          3.18807        0.92344        0.75620
C          4.18244       -0.06139        1.22266
C          3.21370       -1.19848        0.85634
C          3.77651       -2.45625        0.17872
O          3.12050       -3.43356       -0.18279
H          0.55984        0.78846       -0.35974
H          0.69705       -0.03991        1.19733
H          0.52230       -0.98063       -0.28794
H          2.51171        0.83357       -1.98096
H          2.52265       -0.93354       -2.05308
H          3.99889       -0.05692       -1.63295
H          2.61992        1.31203        1.51090
H          4.43367        0.01536        2.28484
H          5.11525       -0.04061        0.64719
H          2.60914       -1.49008        1.72974
H          4.86921       -2.45594        0.02518
