16

C          4.42547       -5.18239        0.60149
C          4.95803       -3.77167        0.57547
N          4.11643       -2.81337        0.36549
N          4.47208       -1.48033        0.50474
C          5.57969       -0.93818        0.12173
O          6.71229       -1.45834       -0.39746
C          6.91684       -2.87095       -0.47338
C          6.42851       -3.58157        0.76869
H          3.35628       -5.19839        0.37247
H          4.57996       -5.59839        1.60111
H          4.95851       -5.79517       -0.13003
H          5.70608        0.15126        0.21931
H          7.99760       -3.01624       -0.56423
H          6.45900       -3.23876       -1.40077
H          6.61101       -3.01805        1.68826
H          6.90671       -4.56293        0.85083
