19

C          0.93641       -0.10443        0.21326
C          2.45022       -0.02383        0.07071
C          2.92029        0.71064       -1.20461
C          2.40992        2.15853       -1.27365
O          2.91798        2.92115       -0.18889
C          4.46279        0.65404       -1.26560
C          4.99725        1.20798       -2.51955
N          5.41107        1.63561       -3.51484
H          0.67366       -0.74594        1.06046
H          0.47790       -0.52554       -0.68650
H          0.49759        0.87989        0.40097
H          2.84415       -1.04836        0.05649
H          2.86807        0.45510        0.96465
H          2.51729        0.17435       -2.07521
H          1.31656        2.20750       -1.26240
H          2.73021        2.64286       -2.20175
H          2.38482        2.71202        0.59779
H          4.78929       -0.39060       -1.18831
H          4.90235        1.18072       -0.40972
