20

C          0.95111        0.12081       -0.09513
C          2.47160        0.12052       -0.03632
C          3.05750       -0.96152       -0.94647
C          4.59328       -0.98485       -0.97743
N          5.18768       -1.28261        0.33238
C          5.12147       -2.02527       -1.95696
N          4.44753       -3.08969       -2.26701
O          5.19886       -3.86068       -3.16111
H          0.54537        0.88549        0.57433
H          0.54762       -0.84910        0.21390
H          0.59726        0.33257       -1.10902
H          2.77733       -0.04521        1.00208
H          2.84663        1.10563       -0.33614
H          2.69010       -0.80213       -1.96930
H          2.67033       -1.94003       -0.63318
H          4.96918       -0.01310       -1.31777
H          4.80729       -2.16995        0.66659
H          4.89694       -0.58129        1.01099
H          6.13645       -1.85069       -2.35806
H          4.62060       -4.63267       -3.30848
