16

C         -0.49287        1.15965        1.15076
C          0.11073        1.38922       -0.21290
C          1.22859        0.58819       -0.79204
O          1.54006       -0.61802       -0.07075
C          0.61582       -1.52838        0.31396
N         -0.66853       -1.57226        0.15555
N         -1.32732       -0.66136       -0.58387
C         -1.22578        0.71467       -0.08739
H         -0.89101        2.02062        1.67850
H         -0.06995        0.42650        1.82318
H          0.11338        2.40219       -0.59969
H          2.13915        1.19648       -0.77491
H          1.03939        0.33174       -1.84046
H          1.12004       -2.32380        0.88499
H         -1.08941       -0.72852       -1.57511
H         -2.09311        1.31497       -0.35628
