18

C          1.16239        0.01440       -0.02516
N          2.61770        0.00329        0.08927
C          3.27792       -0.77059       -0.95874
C          3.28650        0.74015       -0.98423
C          4.56587        1.46623       -0.69584
N          4.34354        2.89407       -0.67470
C          4.45921        3.65603       -1.80755
O          4.76275        3.24653       -2.91887
H          0.74019       -0.66335        0.72442
H          0.78131       -0.29862       -1.00457
H          0.77655        1.01763        0.18384
H          2.67726       -1.28695       -1.69867
H          4.18441       -1.28864       -0.66960
H          2.68956        1.21870       -1.75338
H          5.31194        1.22539       -1.46046
H          4.97518        1.19037        0.28269
H          3.99119        3.31278        0.17625
H          4.23423        4.71849       -1.60838
