18

C          2.15391        1.15944       -0.95620
C          2.14788       -0.09710       -0.09998
C          2.12300       -1.33202       -0.94929
C          3.11469       -2.10666       -1.41985
C          4.60764       -2.00755       -1.29885
N          5.23562       -1.00923       -0.75020
N          5.38174       -3.02943       -1.82069
O          6.72265       -2.65441       -2.00096
H          2.14932        2.05215       -0.32324
H          1.26926        1.20110       -1.60204
H          3.04160        1.20224       -1.59676
H          1.24651       -0.09456        0.52593
H          2.98183       -0.09752        0.60642
H          1.11135       -1.64609       -1.21066
H          2.80783       -2.97537       -2.00260
H          4.58042       -0.30330       -0.42446
H          5.00337       -3.55087       -2.60737
H          6.80124       -1.88684       -1.38539
