19

C          0.97020       -0.07270       -0.12860
C          2.49061       -0.06638       -0.01944
C          3.07985        1.05431        0.84516
N          2.34354        1.34987        2.08792
C          4.45742        0.46605        1.16289
O          4.26920       -0.95015        1.34395
C          3.13344       -1.27249        0.61034
C          2.70339       -2.53685        0.56815
H          0.60541        0.89721       -0.48273
H          0.48771       -0.29277        0.82968
H          0.63631       -0.83152       -0.84464
H          2.90074        0.03606       -1.03408
H          3.17613        1.98992        0.28445
H          2.27953        0.49086        2.63949
H          1.38521        1.61626        1.86948
H          4.91072        0.89028        2.06544
H          5.15451        0.61547        0.32884
H          3.25075       -3.31837        1.08572
H          1.81410       -2.82588        0.02065
