17

C          0.98742        0.00730        0.07432
N          2.45309        0.09978        0.06030
C          2.88898        0.91856       -1.09043
C          4.39730        0.89449       -1.22399
O          5.09685        1.90410       -1.27073
C          2.95685        0.61364        1.35053
C          2.47338        2.02635        1.63496
C          2.05866        3.23817        1.87895
H          0.62714       -0.48288       -0.83670
H          0.49870        0.98675        0.13933
H          0.64421       -0.60425        0.91614
H          2.54422        1.95742       -1.03317
H          2.49759        0.48872       -2.02045
H          4.84895       -0.10759       -1.31660
H          4.05231        0.59483        1.37224
H          2.62927       -0.04564        2.16366
H          1.72674        4.23151        2.07541
