14

C          1.11296       -0.02996        0.42102
N          2.52805       -0.06830        0.14224
C          3.24984       -1.20864       -0.06713
C          4.53031       -1.32582       -0.40851
N          4.78406       -2.64441       -0.50101
C          3.63873       -3.34532       -0.21732
O          3.53429       -4.56136       -0.22316
O          2.61462       -2.46294        0.07795
H          0.78510        1.00760        0.53844
H          0.88705       -0.56219        1.35108
H          0.53958       -0.47971       -0.39583
H          2.95382        0.79397       -0.18491
H          5.27486       -0.56723       -0.58414
H          5.65740       -3.09108       -0.73356
