21

C          3.15050       -0.36912       -1.28819
C          2.44592       -0.06574        0.02706
C          3.05298        1.13958        0.75074
C          2.94349        2.45604       -0.01943
C          2.94286        3.49415        1.08276
O          4.27562        3.72567        1.53849
C          2.10909        2.81855        2.16514
N          2.42622        1.38164        2.06567
H          2.76519       -1.29954       -1.71771
H          4.22882       -0.48660       -1.13893
H          2.98947        0.42892       -2.01906
H          2.51932       -0.95052        0.67234
H          1.37885        0.09826       -0.16652
H          4.11306        0.92990        0.94157
H          1.99935        2.50288       -0.57702
H          3.77798        2.58281       -0.71540
H          2.52131        4.45002        0.75859
H          4.52478        2.94655        2.07100
H          1.04136        2.96630        1.96777
H          2.34429        3.18566        3.16865
H          1.56808        0.83871        2.16717
