15

C          1.06972        0.08640        0.03554
C          2.56134        0.04014       -0.00847
C          3.30860        1.01268       -0.55393
C          4.72874        0.93117       -0.57269
C          5.64148        1.81969       -1.11707
C          6.90578        1.26684       -0.86078
N          6.81618        0.11274       -0.20398
O          5.46213       -0.09925       -0.02365
H          0.69287       -0.71100        0.68419
H          0.64864       -0.06506       -0.96304
H          0.71415        1.03915        0.44015
H          3.03029       -0.83676        0.43405
H          2.83599        1.88154       -1.00107
H          5.41493        2.74188       -1.63021
H          7.88347        1.64781       -1.12048
