19

C          0.70361        0.13052       -0.21551
C          2.16506        0.01244        0.13710
C          2.50825        0.03021        1.61948
C          1.92942       -1.13983        2.41953
C          2.43583       -2.44300        1.96291
C          2.84777       -3.50464        1.57723
C          3.09709       -0.70734       -0.81971
N          3.10374        0.74542       -0.73643
H          0.09308       -0.57192        0.35833
H          0.52309       -0.08148       -1.27527
H          0.34490        1.14419       -0.00859
H          2.13253        0.96767        2.04891
H          3.59877        0.04629        1.75377
H          0.83503       -1.13440        2.37587
H          2.19469       -1.00586        3.47508
H          3.21694       -4.43913        1.22501
H          2.69674       -1.14358       -1.72646
H          3.97511       -1.20480       -0.42480
H          2.61938        1.15994       -1.53439
