18

C          1.22372       -0.95328        0.20015
N          2.26530        0.09997        0.08230
C          3.29273       -0.91299       -0.19218
C          4.22471       -1.28760        0.95133
C          3.19377       -1.61571        2.02230
N          2.83057       -2.73579        1.13860
C          4.32437       -2.82720        0.85053
C          2.28556       -2.04469       -0.01695
H          0.48505       -0.89856       -0.60865
H          0.66736       -0.96634        1.14296
H          2.40511        0.66482        0.91750
H          3.75695       -0.83588       -1.18013
H          5.09161       -0.67520        1.18570
H          2.43719       -0.89600        2.34690
H          3.64065       -1.94145        2.97733
H          4.59801       -3.24869       -0.12291
H          4.91109       -3.32941        1.62982
H          2.12302       -2.67351       -0.89889
