15

C          1.19355       -0.17807        0.09939
C          2.65929        0.09236        0.05705
C          3.22296        1.30214        0.23044
C          4.68659        1.10716        0.11204
O          5.53173        1.97309        0.24246
C          4.96586       -0.31995       -0.20654
N          4.61000       -1.34636        0.77569
C          3.60145       -1.00629       -0.21031
H          0.61439        0.74818        0.17181
H          0.94644       -0.80200        0.96437
H          0.87425       -0.70125       -0.80759
H          2.76337        2.25191        0.43563
H          5.68101       -0.56475       -0.97815
H          4.41160       -0.92719        1.68568
H          3.38680       -1.71250       -1.00285
