16

C          2.08468        0.27890        1.20745
C          2.38166        0.09590       -0.08310
N          2.90025        1.04612       -0.92611
N          3.06347        2.38167       -0.51892
C          3.07681        3.14006       -1.77267
C          3.57044        2.17660       -2.83858
C          3.15842        0.84621       -2.28454
O          3.11505       -0.19676       -2.91990
H          1.65180       -0.52514        1.78834
H          2.25421        1.22518        1.71099
H          2.19531       -0.87206       -0.54981
H          3.98522        2.43778       -0.07951
H          3.69771        4.03801       -1.70344
H          2.05240        3.45926       -1.99968
H          4.65929        2.20137       -2.94127
H          3.08545        2.35799       -3.80100
