18

C          2.03219       -0.82703       -1.10803
N          2.43562        0.15323       -0.09962
N          2.90504        1.34947       -0.71216
C          1.93098        2.33914       -1.17087
C          1.34715        3.18915       -0.04293
O          2.36164        3.95025        0.60723
C          4.25790        1.65509       -0.58653
O          5.09873        0.91579       -0.08809
H          1.79948       -1.77837       -0.62020
H          2.82528       -1.00519       -1.84211
H          1.12946       -0.49994       -1.63132
H          3.24306       -0.24473        0.40503
H          1.12738        1.82147       -1.70274
H          2.44120        2.99377       -1.88633
H          0.82516        2.58100        0.70277
H          0.62667        3.89811       -0.46380
H          2.72412        3.37851        1.30919
H          4.50918        2.64885       -0.99276
