21

C          2.36635       -1.29422        0.73898
C          2.54805       -0.05566       -0.11935
N          3.14391       -0.37555       -1.39946
C          4.51130       -0.40079       -1.57880
O          5.30346       -0.14415       -0.67681
C          4.94914       -0.80082       -2.98798
C          4.41278        0.17588       -4.03318
C          6.47345       -0.87526       -3.07809
H          1.91831       -1.02847        1.70134
H          3.32429       -1.78850        0.93054
H          1.71047       -2.01823        0.24386
H          3.17653        0.67299        0.40368
H          1.57873        0.41087       -0.31942
H          2.54256       -0.71999       -2.13566
H          4.54441       -1.80095       -3.18846
H          4.72642        1.20225       -3.81255
H          3.31829        0.16689       -4.06728
H          4.77343       -0.08465       -5.03389
H          6.93266        0.09636       -2.86241
H          6.79318       -1.18751       -4.07766
H          6.87194       -1.59694       -2.35679
