18

C          3.22736        0.68401       -1.16925
C          2.46359       -0.08425       -0.11497
N          1.21865       -0.45843       -0.21218
O          0.64266       -0.05676       -1.41996
C          3.25706       -0.47178        1.19680
C          2.71981        0.04575        2.54731
C          3.00392       -1.37049        3.06013
N          2.94292       -1.85799        1.66554
H          2.61822        0.96167       -2.03011
H          4.06303        0.06867       -1.51461
H          3.62567        1.59672       -0.71679
H         -0.26175       -0.41585       -1.35319
H          4.33916       -0.31622        1.08776
H          1.65763        0.31636        2.54891
H          3.29520        0.84716        3.01755
H          2.25018       -1.79348        3.72993
H          3.99198       -1.49374        3.51862
H          1.99898       -2.13212        1.37433
