21

C          0.87450       -0.02112        0.00917
C          2.39930        0.07189       -0.07510
C          2.83059        0.12410       -1.55018
C          3.15444        1.15992        0.75858
N          2.38416        1.58822        1.92710
C          4.15680        0.07470        1.20578
C          3.13780       -1.00943        0.78689
O          3.65583       -2.16675        0.10303
H          0.40481        0.85633       -0.44849
H          0.51618       -0.09341        1.04093
H          0.51192       -0.91088       -0.51775
H          2.40433        1.00303       -2.04633
H          2.48852       -0.76633       -2.08894
H          3.91917        0.18077       -1.65808
H          3.59082        1.99185        0.19795
H          2.02705        0.84568        2.52767
H          1.58763        2.18406        1.70489
H          4.44625        0.06663        2.26174
H          5.07696        0.06509        0.60893
H          2.53882       -1.34622        1.64337
H          4.31037       -1.83205       -0.53261
