19

C          0.94714       -0.13192       -0.04197
C          2.46517       -0.03671       -0.01756
O          2.98623       -1.23024        0.61178
C          3.31074       -0.88135        1.96866
C          3.83549        0.54032        1.89703
C          3.01321        1.11451        0.79113
C          3.45762        2.38850        0.10305
N          2.31234        2.38425        1.00096
H          0.63219       -1.05599       -0.53877
H          0.50094        0.71334       -0.57434
H          0.53187       -0.15964        0.97131
H          2.85249       -0.02063       -1.04199
H          4.04658       -1.58433        2.36820
H          2.39676       -0.94407        2.57008
H          4.89165        0.53336        1.60366
H          3.73961        1.06015        2.85490
H          3.24697        2.52546       -0.95044
H          4.34335        2.89428        0.46744
H          1.43854        2.43456        0.47555
