17

C          0.87787        0.02667       -0.05553
C          2.40362        0.00959        0.02617
N          2.91896        1.35193        0.30875
C          2.88014       -0.95559        1.06090
C          3.67898       -2.07998        1.00539
C          3.77212       -2.57297        2.32900
C          3.02835       -1.71943        3.10893
O          2.48023       -0.73573        2.35064
H          0.53207        0.72784       -0.82342
H          0.41989        0.31829        0.89700
H          0.49318       -0.96630       -0.31539
H          2.79608       -0.29770       -0.95047
H          2.62713        1.60455        1.25431
H          2.47949        2.02373       -0.31523
H          4.14056       -2.48684        0.11672
H          4.31819       -3.43928        2.67401
H          2.80294       -1.67472        4.16520
