20

C          1.04685        0.05157       -0.16040
C          2.53067       -0.05387       -0.11840
C          3.27150       -0.83949       -1.16034
C          3.38942        0.66369       -1.13691
N          4.58261        1.38821       -0.67160
C          5.89809        0.86526       -0.99735
C          4.45103        2.66106       -0.17317
N          3.38158        3.34057        0.05436
H          0.60459       -0.62819        0.57571
H          0.64013       -0.20393       -1.14351
H          0.73169        1.06970        0.08771
H          2.89941       -0.08543        0.90123
H          2.71313       -1.27973       -1.97905
H          4.09944       -1.44943       -0.82361
H          2.89139        1.18505       -1.95330
H          5.85866       -0.13421       -1.43887
H          6.50755        0.80315       -0.08934
H          6.40547        1.52263       -1.71065
H          5.42336        3.13382        0.04991
H          2.56978        2.77053       -0.19091
