15

C          1.51779       -0.11364       -1.07032
C          2.41764       -0.02429       -0.08135
C          3.19567        1.21751        0.25660
C          4.66962        1.06873        0.16743
C          5.58970        1.22434       -0.84119
C          6.82191        0.95036       -0.22309
N          6.67941        0.64130        1.06770
O          5.31683        0.71463        1.31326
H          0.98148       -1.04109       -1.24923
H          1.29102        0.72735       -1.71805
H          2.60155       -0.89634        0.54447
H          2.92487        1.52075        1.27563
H          2.88871        2.04523       -0.39513
H          5.39729        1.49977       -1.86675
H          7.81489        0.96380       -0.64927
