14

C          1.12210       -0.08792       -0.38212
N          2.38759       -0.02212       -0.15535
N          2.87040        0.17993        1.11766
C          2.08236        0.15981        2.34473
C          1.72142        1.55472        2.79556
O          0.98912        1.77661        3.75797
C          4.25018        0.29015        1.22460
O          4.87534        0.47336        2.26048
H          0.78104       -0.27585       -1.41411
H          0.32539        0.03705        0.36965
H          2.67823       -0.29796        3.14012
H          1.17411       -0.43393        2.21897
H          2.17394        2.39240        2.23743
H          4.75472        0.21284        0.24237
