19

C          1.76626        0.01239        0.97845
C          2.24965       -0.02964       -0.44228
C          0.76716       -0.02281       -0.15456
C         -0.01577        1.24858       -0.46823
O         -1.28786        1.23797        0.19800
C         -2.03374        0.05645       -0.12376
C         -1.27688       -1.21012        0.30097
N          0.03101       -1.29808       -0.37010
H          1.88553        0.93513        1.53406
H          1.88587       -0.88002        1.58245
H          2.70431       -0.95055       -0.78997
H          2.70642        0.86569       -0.84731
H         -0.17915        1.33807       -1.54886
H          0.52225        2.14322       -0.13721
H         -2.25602        0.04943       -1.19769
H         -2.98642        0.11333        0.41234
H         -1.86751       -2.09997        0.06082
H         -1.11635       -1.20056        1.38554
H         -0.12196       -1.43207       -1.36971
