17

C          1.68258        0.28723        0.83974
C          1.00909       -1.00477        0.36420
C          0.24137       -0.58885       -0.89714
C          0.89640        0.69467       -1.36883
C          1.02708        1.36928       -0.01961
O         -0.25270        1.72096        0.53243
N         -1.37698        0.90995        0.19215
C         -1.13478       -0.17152       -0.48553
H          2.75574        0.23601        0.62387
H          1.54795        0.44546        1.91310
H          0.34642       -1.40451        1.14183
H          1.76380       -1.76722        0.14366
H          0.18726       -1.37126       -1.65816
H          0.26933        1.26454       -2.06248
H          1.87342        0.50588       -1.82708
H          1.63164        2.27838       -0.05760
H         -1.97270       -0.83127       -0.75805
