20

C          0.97747        0.84806        2.25896
N          2.43415        0.81391        2.30239
C          2.96555       -0.11642        1.29818
C          4.50569       -0.24274        1.38550
N          5.04226       -0.56297        2.71971
C          4.60232       -1.88031        3.18912
C          5.18838       -2.13300        4.55982
O          4.50185       -2.32969        5.56052
H          0.61031        1.59184        2.97293
H          0.55166       -0.12206        2.53516
H          0.61244        1.13149        1.26689
H          2.71965        0.51193        3.23201
H          2.70454        0.23265        0.29173
H          2.51415       -1.10778        1.42560
H          4.94796        0.71386        1.07953
H          4.85461       -0.98413        0.65681
H          4.72799        0.16238        3.36654
H          4.95996       -2.67268        2.52376
H          3.51347       -1.94549        3.27295
H          6.28974       -2.15130        4.61505
