19

C          1.02665       -0.01144       -0.17386
C          2.51650        0.01120       -0.14146
C          3.31813       -0.80685       -1.11482
C          3.29046        0.69542       -1.24112
N          4.44344        1.46511       -0.91667
C          4.56270        2.82750       -0.86959
C          3.38890        3.68189       -1.26829
O          5.63075        3.33361       -0.52365
H          0.64635       -0.71421        0.57521
H          0.63953       -0.31451       -1.15132
H          0.63186        0.98153        0.06004
H          2.89054        0.09792        0.87251
H          2.79526       -1.38146       -1.87187
H          4.22373       -1.28301       -0.75670
H          2.74718        1.06242       -2.10901
H          5.28621        0.98305       -0.61998
H          2.45829        3.12198       -1.36351
H          3.61300        4.16175       -2.22534
H          3.23687        4.45010       -0.50420
