19

C          0.97724       -0.01018        0.05219
C          2.46309       -0.03997        0.00706
C          3.24589       -1.12727       -0.04889
C          4.69805       -0.78198       -0.00399
N          5.24830       -1.13888        1.29422
C          4.68374        0.72693       -0.27311
C          3.28303        1.20877        0.11403
O          2.83551        2.20463       -0.78594
H          0.55485       -1.01961        0.01449
H          0.57723        0.55070       -0.79804
H          0.63319        0.46493        0.97597
H          2.88908       -2.14811       -0.07980
H          5.24857       -1.30490       -0.79252
H          4.74613       -0.64042        2.02789
H          6.21333       -0.81777        1.35133
H          4.87823        0.91606       -1.33818
H          5.46283        1.26916        0.27535
H          3.25953        1.60644        1.13415
H          2.66148        1.76821       -1.63699
