13

C          1.03007       -0.02579        0.09168
N          2.48359       -0.02444        0.05650
C          3.07458        0.12675       -1.07693
N          2.47655        0.29278       -2.30125
C          4.61174        0.11884       -1.03971
O          5.20945        0.24986       -2.10723
C          5.32750       -0.03789        0.21081
N          5.92270       -0.16239        1.20300
H          0.70042       -0.15603        1.12723
H          0.61643       -0.85516       -0.49110
H          0.61811        0.92300       -0.26680
H          1.47426        0.28450       -2.41879
H          3.05807        0.37767       -3.13110
