16

C          0.98838        0.08198       -0.09706
N          2.45584        0.02919       -0.09776
C          2.89292       -1.31874        0.28329
C          3.01422        0.37567       -1.42302
C          2.71747        1.81487       -1.80636
O          1.74591        2.15045       -2.48107
C          3.66406        2.80279       -1.32580
N          4.44722        3.58119       -0.95835
H          0.59715       -0.19728        0.88807
H          0.55020       -0.58902       -0.84450
H          0.62874        1.09843       -0.28599
H          2.50998       -1.58364        1.27525
H          3.98565       -1.36569        0.34673
H          2.55525       -2.07911       -0.43090
H          2.62265       -0.27997       -2.21069
H          4.10501        0.25050       -1.41845
