18

C          0.94232       -0.04324        0.28172
C          2.43941        0.08606        0.02320
C          3.14622        1.12246        0.92801
C          4.04852       -0.04206        1.31884
O          3.15184       -0.99715        0.70590
C          2.76547        0.12707       -1.51335
N          2.91806        1.25213       -2.13882
N          3.18060        1.10752       -3.45640
H          0.72434       -0.13601        1.35090
H          0.53729       -0.92939       -0.21867
H          0.40668        0.83370       -0.09677
H          2.54185        1.51905        1.74967
H          3.65643        1.94755        0.42454
H          4.15852       -0.20901        2.39381
H          5.03170       -0.05652        0.83676
H          2.86554       -0.85367       -2.01337
H          3.40603        2.01657       -3.86748
H          3.98625        0.50339       -3.63549
