17

C          1.02986        0.11902       -0.02737
C          2.54201        0.06207        0.15779
C          2.94188        0.13989        1.62796
C          3.16029       -1.14932       -0.51798
C          4.04353       -0.78368       -1.45041
N          4.10372        0.56950       -1.52310
C          3.23381        1.18089       -0.63573
O          3.07062        2.38378       -0.51552
H          0.53629       -0.71779        0.47995
H          0.74931        0.08152       -1.08659
H          0.61914        1.04966        0.38095
H          2.54306       -0.70882        2.19399
H          2.56759        1.06070        2.08873
H          4.03205        0.14096        1.74879
H          2.91834       -2.17135       -0.26295
H          4.64972       -1.41331       -2.08614
H          4.68722        1.10225       -2.15342
