14

C          0.94207       -0.06005        0.05723
N          2.37464       -0.08001       -0.12626
C          3.25118        0.97263       -0.08727
C          4.51810        0.58288        0.10709
C          4.42836       -0.89351        0.22919
O          5.37569       -1.66570        0.19080
N          3.06577       -1.20853        0.27368
O          2.69642       -2.49006       -0.16626
H          0.54903        0.96087        0.00167
H          0.65655       -0.48400        1.02426
H          0.46030       -0.64505       -0.73432
H          2.88975        1.98395       -0.21678
H          5.42303        1.15138        0.14621
H          3.56952       -2.91797       -0.26492
