21

C          1.48493       -0.17783       -0.60016
C          2.82466        0.12879       -0.00853
C          3.55766       -1.01006        0.65858
C          4.11656       -0.39035       -0.59858
C          5.13470        0.72755       -0.60209
N          6.06385        0.59840        0.51393
C          4.26556        1.98962       -0.48835
C          3.07656        1.56995        0.38688
H          1.42658       -1.20377       -0.97814
H          1.25120        0.50268       -1.42377
H          0.71234       -0.06234        0.16876
H          3.16677       -2.01875        0.56464
H          4.03383       -0.83725        1.61190
H          4.08067       -0.93851       -1.53055
H          5.70549        0.73846       -1.53831
H          5.54671        0.64864        1.38946
H          6.68406        1.40635        0.52734
H          3.89789        2.25663       -1.48823
H          4.79765        2.85966       -0.09143
H          2.21452        2.21664        0.19489
H          3.32632        1.63957        1.45078
