12

C          1.11213       -0.09290       -0.06464
C          2.60091        0.03113       -0.06348
N          3.19244        1.16846       -0.06449
C          4.55771        1.14433       -0.06337
O          5.17427        2.20115       -0.06445
N          5.25060       -0.03232       -0.06106
C          4.55087       -1.10130       -0.06032
O          3.21144       -1.16676       -0.06154
H          0.64812        0.89736       -0.06378
H          0.78922       -0.63539        0.82800
H          0.79052       -0.63333       -0.95899
H          4.99645       -2.10699       -0.05856
