19

C          1.05772        0.10765       -0.03067
C          2.57518        0.09424       -0.05191
C          3.11760       -0.62608       -1.28279
O          4.55301       -0.65933       -1.24660
C          5.08399       -1.65363       -0.49216
O          4.44538       -2.49096        0.12616
N          6.44027       -1.56330       -0.52577
C          7.30146       -2.45143        0.20725
H          0.69629        0.61979        0.86649
H          0.65837       -0.91174       -0.02248
H          0.65667        0.62800       -0.90584
H          2.94684       -0.38262        0.86214
H          2.96005        1.12075       -0.03096
H          2.83296       -0.08186       -2.19020
H          2.70816       -1.63907       -1.37943
H          6.82639       -0.81884       -1.08894
H          6.72920       -3.17143        0.79782
H          7.92823       -1.85035        0.87040
H          7.93520       -2.98246       -0.50667
