19

C          1.00889        0.14737        0.11914
C          2.50053        0.11866       -0.04174
C          3.15802       -1.01117       -0.37207
C          4.63693       -1.23922       -0.48235
N          5.46075       -0.32325        0.28669
C          5.50130        1.03474       -0.25520
C          4.16990        1.61935       -0.74209
O          3.08619        1.35239        0.14957
H          0.54740       -0.82287       -0.09046
H          0.57223        0.87949       -0.56915
H          0.74453        0.43442        1.14147
H          2.56784       -1.90888       -0.54703
H          4.93893       -1.26416       -1.53579
H          4.83004       -2.24427       -0.08590
H          6.40740       -0.68635        0.36805
H          6.22284        1.08158       -1.07991
H          5.89363        1.68012        0.53889
H          3.92687        1.28259       -1.75898
H          4.27024        2.70954       -0.79979
