21

C          1.57499       -0.18608        0.69285
C          2.99803        0.00517        0.22614
C          3.19939       -0.12447       -1.26402
C          4.02064        0.27093        1.08053
C          5.38890        0.73036        0.61931
N          6.46227       -0.17218        0.99670
C          3.85210        0.23121        2.58227
O          4.32585       -1.02875        3.04957
H          0.90693       -0.45321       -0.13196
H          1.19477        0.75264        1.11273
H          1.49651       -0.97897        1.44189
H          2.40221       -0.71435       -1.72548
H          4.12855       -0.65929       -1.49061
H          3.21837        0.85806       -1.74135
H          5.42964        0.88170       -0.46626
H          5.58412        1.71842        1.05002
H          6.26856       -1.09212        0.60675
H          6.44160       -0.29886        2.00864
H          2.81655        0.34489        2.91106
H          4.43051        1.02048        3.07008
H          3.89047       -1.70693        2.50680
