19

C          0.92990        0.00078       -0.03928
C          2.42357       -0.00451       -0.10571
C          3.13995       -0.03273       -1.24421
C          2.58563       -0.12749       -2.62819
O          3.52775       -0.92265       -3.35207
C          4.82351       -0.67910       -2.78225
C          4.63185       -0.08532       -1.37749
N          5.29812       -0.86076       -0.33613
H          0.60474        0.09777        1.00205
H          0.51774       -0.93472       -0.42961
H          0.51410        0.84598       -0.59612
H          2.93446        0.03250        0.85319
H          2.52991        0.86033       -3.09765
H          1.60696       -0.61090       -2.68304
H          5.36287        0.02022       -3.43126
H          5.37877       -1.62356       -2.78132
H          5.04081        0.93193       -1.36944
H          4.86634       -1.78372       -0.29293
H          5.13208       -0.42327        0.56686
