17

C          1.13304        0.00681       -0.04119
C          2.64982        0.06443        0.05443
C          3.12644        0.82839        1.28123
O          2.31324        1.31744        2.07061
N          4.49922        0.93587        1.45125
O          5.43743        0.38519        0.55720
C          5.06946        1.59936        2.51738
C          6.38185        1.73797        2.73940
H          0.82752       -0.54878       -0.93303
H          0.70462        1.01282       -0.10144
H          0.70263       -0.48953        0.83499
H          3.04095        0.55723       -0.84217
H          3.03840       -0.95850        0.10315
H          4.93287       -0.06575       -0.13255
H          4.36188        2.03644        3.21986
H          7.12883        1.32252        2.07232
H          6.73505        2.28031        3.60984
