15

C          0.94278        0.05113       -0.14993
C          2.44549       -0.12396        0.01388
C          2.93406       -1.40242       -0.58252
C          3.82296       -1.54152       -1.56555
C          3.91489       -2.98444       -1.75022
O          4.54210       -3.53756       -2.63392
N          3.15676       -3.56662       -0.77158
O          2.43952       -2.58606       -0.05110
H          0.62753        1.01309        0.26695
H          0.39073       -0.73723        0.37312
H          0.65295        0.02792       -1.20577
H          2.70040       -0.10320        1.07986
H          2.95469        0.72922       -0.45000
H          4.35003       -0.80617       -2.14112
H          2.82706       -4.51971       -0.80272
