21

C          1.07838       -0.32730        0.22376
C          2.58443       -0.12373        0.10456
C          3.04931        0.89616       -0.96897
C          2.61515        0.43954       -2.37266
N          2.50689        2.26102       -0.77690
C          3.00525        2.95823        0.40302
C          4.58604        0.96138       -1.00845
O          5.33505        0.36183       -0.24027
H          0.86963       -1.13173        0.93757
H          0.62582       -0.61603       -0.72886
H          0.57866        0.57494        0.58894
H          3.03742       -1.09942       -0.11553
H          2.97295        0.15809        1.09090
H          1.52663        0.43691       -2.49113
H          2.98096       -0.57227       -2.58564
H          3.02402        1.09566       -3.15086
H          1.48842        2.21167       -0.72349
H          4.07083        3.19170        0.30949
H          2.83476        2.40138        1.32668
H          2.48257        3.91652        0.49642
H          5.00826        1.61870       -1.78874
