16

C          1.88609        1.06177        0.84796
N          2.37220       -0.05753        0.04442
C          3.06706       -1.07267        0.87882
C          2.10994       -1.81353        1.82844
O          2.49870       -3.09910        1.26558
C          3.06154       -2.41160        0.11226
C          4.35072       -0.66955        1.41365
N          5.37610       -0.31017        1.82479
H          1.40988        1.79229        0.18523
H          2.69282        1.57377        1.37910
H          1.12685        0.74220        1.56781
H          2.96956        0.31622       -0.69594
H          1.03564       -1.65142        1.69637
H          2.35119       -1.75682        2.89537
H          2.38416       -2.49596       -0.74651
H          4.03761       -2.82166       -0.16538
