19

C          0.95800       -0.14797        0.07064
N          2.41078       -0.02167        0.04661
C          2.87260        1.24769       -0.54999
C          2.41060        2.47058        0.25181
C          4.41809        1.23094       -0.64636
O          4.94015        2.44167       -1.22410
C          4.86823        2.52236       -2.57483
O          4.40745        1.68378       -3.33210
H          0.69002       -1.15267        0.41285
H          0.52235       -0.00593       -0.92321
H          0.50143        0.55557        0.77287
H          2.78528       -0.79508       -0.50636
H          2.46491        1.33757       -1.56462
H          2.72937        2.40344        1.29766
H          1.32158        2.57702        0.23119
H          2.82185        3.39580       -0.16544
H          4.77528        0.36309       -1.21629
H          4.85724        1.14866        0.35542
H          5.28882        3.48742       -2.89745
