15

C          1.11894        0.01507       -0.02896
C          2.45482        0.00331       -0.03276
C          3.21482       -1.25637       -0.41487
C          3.86675       -2.33693       -0.74264
C          4.62675       -3.59661       -1.12476
N          3.69036       -4.61479       -1.52211
C          4.12275       -5.85029       -1.91446
O          5.28995       -6.20760       -1.96798
H          0.57506        0.91334        0.24358
H          0.54051       -0.86368       -0.29512
H          3.04426        0.87518        0.23155
H          5.21075       -3.96170       -0.27375
H          5.30680       -3.39278       -1.95816
H          2.70046       -4.40945       -1.51048
H          3.28523       -6.51397       -2.18675
