18

C          1.35661       -0.25196       -0.55951
C          2.82112       -0.17034       -0.19211
C          3.28389       -1.05849        1.02088
C          4.65866       -1.07215        0.29071
C          3.82997       -1.04897       -1.02629
N          5.29022        0.25253        0.49770
N          4.63991        1.43333        0.25085
C          3.39042        1.28638       -0.06062
H          1.01110       -1.29022       -0.60337
H          1.17214        0.20300       -1.53789
H          0.74060        0.27222        0.17897
H          2.79816       -2.04043        1.08564
H          3.25205       -0.59307        2.01087
H          5.30518       -1.93210        0.47266
H          3.44372       -2.02748       -1.33703
H          4.29760       -0.57205       -1.89347
H          6.28759        0.32698        0.29275
H          2.73256        2.14576       -0.26262
