19

C          1.02208        0.10332       -0.08479
C          2.54088        0.07062       -0.00617
C          3.17758        0.53430       -1.31823
C          4.67918        0.47099       -1.26757
C          5.45678        1.51318       -0.93588
C          5.35920       -0.79591       -1.64714
N          4.72404       -1.86352       -2.01170
O          5.65337       -2.86676       -2.31101
H          0.58625       -0.21034        0.86891
H          0.65595       -0.57250       -0.86416
H          0.66120        1.11280       -0.30728
H          2.86452       -0.94776        0.23819
H          2.86842        0.71818        0.81644
H          2.85966        1.56339       -1.53001
H          2.80235       -0.06695       -2.15529
H          5.01822        2.46857       -0.66107
H          6.54014        1.45187       -0.91964
H          6.46388       -0.78391       -1.60854
H          5.07944       -3.60634       -2.58518
