19

C          0.95381       -0.02930       -0.05494
C          2.46870       -0.04824       -0.09387
C          3.20678        0.95813        0.81743
N          4.17320       -0.10586        1.19063
C          5.35165       -0.02625        0.32138
C          3.17629       -1.13548        0.75344
C          3.72525       -2.40803        0.04001
O          4.27394       -2.48234       -1.05985
H          0.56720        0.85046       -0.57900
H          0.57397       -0.00580        0.97178
H          0.54643       -0.91916       -0.54546
H          2.82211       -0.01529       -1.13495
H          2.61795        1.30817        1.67482
H          3.61638        1.84049        0.31339
H          5.93922        0.86061        0.58583
H          5.12207        0.03696       -0.74839
H          6.00312       -0.89099        0.48772
H          2.55654       -1.44727        1.60943
H          3.56026       -3.33742        0.61123
