14

C          1.18640        0.02947        0.12312
C          2.64766        0.12844        0.04280
C          3.56435        1.10692        0.00355
C          4.16662        2.41206        0.01427
N          5.42656        1.70832       -0.13592
C          4.77820        0.53220       -0.13451
N          4.77174       -0.77707       -0.02321
O          3.36567       -1.06654        0.02132
H          0.72494        1.02157        0.13471
H          0.88134       -0.49990        1.03017
H          0.79381       -0.51534       -0.74183
H          4.04609        2.97823        0.94361
H          3.88180        3.07061       -0.81114
H          6.10564        1.83537        0.60882
