19

C          1.13339        0.16859       -0.12960
C          2.46478        0.12946        0.00222
C          3.24441       -1.14403        0.19947
C          4.22205       -1.11580        1.38611
N          5.36879       -0.22796        1.16789
C          5.08286        1.18419        1.45921
C          3.67414        1.71873        1.16074
O          3.19888        1.29548       -0.12241
H          0.52609       -0.72772       -0.07112
H          0.62381        1.11066       -0.30560
H          3.79461       -1.36303       -0.72504
H          2.55516       -1.98518        0.34790
H          4.62427       -2.12914        1.50419
H          3.70865       -0.88427        2.32735
H          5.64044       -0.29559        0.18524
H          5.80597        1.77711        0.88549
H          5.30872        1.37633        2.51479
H          3.71356        2.81375        1.14019
H          2.96939        1.45280        1.96109
