14

C          1.03933        0.00996        0.11687
C          2.52316        0.08355        0.18967
C          3.27497        1.18407        0.12485
C          4.67101        0.70622        0.15669
O          4.63828       -0.67023        0.22406
N          3.29119       -1.04587        0.33483
N          5.78725        1.34964        0.11169
O          5.56801        2.73312        0.03695
H          0.58936        1.00686        0.06557
H          0.63756       -0.49444        1.00155
H          0.72718       -0.54841       -0.77130
H          2.98337        2.21125        0.01506
H          3.03200       -1.81851       -0.27652
H          6.47783        3.08560        0.04977
