13

C          1.10473        0.08623        0.06350
N          2.55341        0.09520        0.01290
C          3.17084        0.31168       -1.20763
O          2.60486        0.50167       -2.27879
C          3.22064       -0.11880        1.21949
O          2.64743       -0.30826        2.28766
C          4.67089       -0.12082        1.23086
C          5.87242       -0.12603        1.26020
H          0.65163        0.25992       -0.91577
H          0.76834        0.86500        0.75586
H          0.76834       -0.88315        0.44580
H          4.26940        0.30327       -1.16022
H          6.93743       -0.13332        1.30133
