17

C          1.01465       -0.15316        0.12585
C          2.53015       -0.09531        0.15468
C          3.06706        1.08722        0.93475
C          4.43626        0.59887        1.34028
C          4.18602       -0.86487        1.49131
O          3.05387       -1.24229        0.83066
N          4.96034       -1.66103        2.15298
O          4.47073       -2.97371        2.10920
H          0.59444        0.73396       -0.35759
H          0.60148       -0.23373        1.13707
H          0.67915       -1.04128       -0.42022
H          2.91948       -0.10200       -0.87074
H          2.46462        1.26783        1.83421
H          3.09142        2.01154        0.35108
H          4.78065        1.05005        2.27349
H          5.17743        0.75509        0.55066
H          5.12879       -3.46208        2.63586
