23

C          2.80315       -1.06084       -1.10982
C          2.39731       -0.07890       -0.00999
N          0.93401        0.03567        0.02558
C          2.95447       -0.42941        1.39886
C          2.44484       -1.77656        1.93718
C          4.49729       -0.42426        1.46545
C          5.13197        0.91783        1.11537
O          6.54777        0.81656        1.21454
H          2.38812       -0.75390       -2.07671
H          2.44712       -2.07590       -0.90749
H          3.89056       -1.09685       -1.22725
H          2.76597        0.91293       -0.29125
H          0.51510       -0.87907        0.18854
H          0.59498        0.33015       -0.89065
H          2.59957        0.34399        2.09541
H          2.78058       -2.61358        1.31715
H          1.35260       -1.80517        1.99188
H          2.81854       -1.94958        2.95274
H          4.91780       -1.20632        0.82183
H          4.81583       -0.69647        2.48129
H          4.79096        1.70700        1.79307
H          4.90342        1.21856        0.09024
H          6.76063        0.59290        2.13628
