16

C          2.83351       -0.85245       -0.65198
C          2.23594        0.06070        0.12522
C          2.95720        1.01374        1.03300
C          2.70914        2.47105        0.67387
C          2.84773        3.02646        2.04271
N          3.28569        4.20848        2.30292
N          2.47419        2.09960        2.96663
O          2.46498        0.82333        2.38028
H          2.24473       -1.51900       -1.27570
H          3.91272       -0.96841       -0.67689
H          1.14927        0.12188        0.12483
H          4.03458        0.80222        1.05241
H          1.69341        2.66719        0.31514
H          3.44345        2.86993       -0.02932
H          3.49558        4.71476        1.43593
H          2.91931        2.17316        3.87718
