16

C          1.18320       -0.09984       -0.11685
N          2.60745       -0.08017        0.08937
N          3.33508       -1.24369        0.18348
C          4.56549       -0.87623        0.37353
C          5.70156       -1.82472        0.53645
C          4.76161        0.60772        0.44132
C          3.36091        1.08508        0.21148
O          2.98800        2.24425        0.15412
H          0.81624       -1.12922       -0.13845
H          0.95550        0.40051       -1.06190
H          0.70169        0.45167        0.69585
H          5.37224       -2.84993        0.34869
H          6.09002       -1.75099        1.55527
H          6.49499       -1.56649       -0.16967
H          5.43015        0.94560       -0.35207
H          5.11395        0.90130        1.43182
