16

C          1.13801       -0.06391       -0.12127
N          2.57223       -0.18718       -0.35282
N          3.21298       -1.26319        0.16392
C          4.37580       -0.85057        0.54141
C          4.62045        0.61691        0.42784
C          3.30349        1.07196       -0.16908
C          3.51689        1.69683       -1.52763
O          3.39208        2.89913       -1.74637
H          0.64043       -1.02885       -0.26676
H          0.69030        0.64206       -0.82845
H          0.92432        0.27431        0.89866
H          5.14624       -1.51544        0.95639
H          5.50402        0.80306       -0.18894
H          4.77942        1.01045        1.43589
H          2.79807        1.78376        0.49467
H          3.87255        1.01605       -2.32229
