21

C          2.37676       -0.49898       -1.61669
C          2.30339        0.22824       -0.27198
N          0.91870        0.19331        0.21663
C          3.25631       -0.37909        0.78647
C          4.71346       -0.21672        0.43168
C          5.76196       -0.70120        1.11841
C          5.73483       -1.49397        2.38348
O          6.42436       -2.71348        2.15506
H          1.73478       -0.00949       -2.35763
H          2.05814       -1.54297       -1.52804
H          3.39484       -0.49335       -2.02063
H          2.57271        1.27964       -0.42605
H          0.61033       -0.77359        0.31725
H          0.30245        0.60970       -0.48137
H          3.02481       -1.44413        0.92008
H          3.08087        0.12198        1.74692
H          4.93760        0.37113       -0.45738
H          6.75991       -0.48387        0.74062
H          4.72482       -1.72265        2.73074
H          6.25789       -0.95013        3.17547
H          6.04528       -3.10371        1.34973
