14

C          2.64666       -0.79708       -2.22614
C          2.36809       -0.58828       -0.76804
O          1.98423       -1.47396       -0.01267
C          2.50610        0.79523       -0.21401
N          2.96358        1.81517       -0.87275
N          2.92385        2.94246        0.00314
C          2.44746        2.55143        1.13999
C          2.11337        1.10444        1.18202
H          1.70011       -0.90116       -2.76183
H          3.24520       -1.70444       -2.34681
H          3.21135        0.03305       -2.65635
H          2.29531        3.20561        2.00995
H          1.04857        0.95082        1.35823
H          2.73150        0.58249        1.91245
