12

C          1.03482        0.12178       -0.08003
C          2.36510        0.01234       -0.08277
O          3.18110        1.13436       -0.08648
C          4.38019        0.49734       -0.08812
N          4.41811       -0.78976       -0.08602
N          3.10720       -1.13215       -0.08248
C          2.71257       -2.45313       -0.07929
O          1.57086       -2.90032       -0.07590
H          0.56173        1.09742       -0.08062
H          0.38300       -0.74516       -0.07717
H          5.23953        1.18109       -0.09122
H          3.58413       -3.13033       -0.08010
