18

C          1.09528        0.16378       -0.15040
N          2.55126        0.15099       -0.07080
N          3.07798        0.87478        0.94617
C          4.36148        0.75480        1.07721
C          5.14085        1.43531        2.14841
C          4.63197        2.53490        2.72455
C          6.47471        0.84669        2.47543
O          6.31033       -0.48221        2.95360
H          0.76390       -0.42597       -1.00997
H          0.72214        1.18488       -0.27722
H          0.65129       -0.26540        0.75370
H          2.87513       -0.81905       -0.06332
H          4.96041        0.11791        0.39873
H          3.66022        2.92750        2.43293
H          5.16676        3.07305        3.49898
H          6.99728        1.42144        3.24786
H          7.11494        0.81817        1.58872
H          5.68693       -0.44092        3.70044
