19

C          0.97373        0.08301       -0.03606
C          2.49695        0.06409       -0.13914
O          2.87395       -1.07506       -0.95331
C          3.22497       -0.51011       -2.17709
C          3.46762       -1.43209       -3.31620
C          3.34964        0.81542       -2.17374
C          3.06769        1.33420       -0.81669
N          4.31853        1.82358       -0.23455
H          0.61812       -0.83501        0.44437
H          0.50556        0.11855       -1.02585
H          0.62703        0.93967        0.54906
H          2.91647       -0.08013        0.86421
H          3.49212       -2.47339       -2.97888
H          4.42729       -1.21524       -3.79610
H          2.67135       -1.33763       -4.06101
H          3.64093        1.42619       -3.01547
H          2.33719        2.14898       -0.83185
H          4.99042        1.05460       -0.22463
H          4.16275        2.05976        0.74365
