14

C          1.02331       -0.03494        0.02685
N          2.41874       -0.10174       -0.32190
O          3.17424        1.03875       -0.01208
C          4.47230        0.53384        0.09293
O          5.53020        1.38909        0.22038
C          4.61005       -0.78938        0.06177
C          3.21554       -1.19722       -0.10748
N          2.81719       -2.42056       -0.04690
H          0.66332        1.00143        0.00116
H          0.83752       -0.43649        1.02760
H          0.43331       -0.60650       -0.69527
H          5.14383        2.27859        0.14203
H          5.48628       -1.39802        0.13515
H          3.61292       -3.04602        0.12464
