15

C         -1.39021        1.61210       -0.49353
C         -1.17785        0.00107       -0.45111
C         -0.96208       -1.16723        0.46644
N          0.35406       -1.77229        0.36720
C          1.46201       -1.18136        0.11663
N          1.76592        0.12643       -0.13538
C          0.90003        1.07325       -0.04075
N         -0.42372        1.03606        0.29056
H         -2.23599        2.02049        0.04270
H         -1.09010        2.11889       -1.40075
H         -2.24061       -0.18294       -0.67457
H         -1.67903       -1.95305        0.19358
H         -1.19000       -0.92351        1.51307
H          2.35083       -1.83636        0.08748
H          1.24223        2.10413       -0.23811
