19

C          0.81422        0.14750       -0.09395
C          2.31372        0.08665        0.09267
C          2.70467        0.12299        1.55747
O          4.11840        0.05670        1.73782
C          3.18481       -0.67118       -0.89789
N          2.60805       -1.45733       -1.99174
C          3.14104        0.83875       -0.93473
O          4.31962        1.52066       -0.47244
H          0.32132       -0.62117        0.51057
H          0.50481        0.00396       -1.13365
H          0.43917        1.12572        0.22608
H          2.24624       -0.70808        2.10385
H          2.35982        1.05922        2.00924
H          4.35066       -0.88934        1.75916
H          4.11124       -1.10422       -0.52856
H          1.95328       -0.91552       -2.55225
H          2.10041       -2.26721       -1.63958
H          2.62156        1.30255       -1.76745
H          4.60251        1.18437        0.40292
