18

C          1.16674       -0.14784        0.10905
C          2.62820        0.01882       -0.13653
C          3.31518       -0.88271       -1.13161
C          4.70152       -1.31767       -0.87046
C          5.76128       -0.49421       -0.94973
C          5.58191        0.90759       -1.27291
C          4.35085        1.41128       -1.47630
C          3.11968        0.59723       -1.44114
H          0.99144       -1.00554        0.76623
H          0.60960       -0.31295       -0.81933
H          0.76007        0.74399        0.59545
H          3.15438        0.27431        0.77701
H          2.71519       -1.58649       -1.69790
H          4.85424       -2.35997       -0.60622
H          6.76731       -0.85236       -0.75478
H          6.46407        1.53704       -1.32865
H          4.24284        2.46800       -1.70356
H          2.38647        0.85451       -2.19773
