15

C          0.68058       -4.47287        0.54419
N         -0.71328       -3.92615        0.57846
C         -0.68720       -2.59049       -0.07167
C          0.76736       -2.34334       -0.11027
N          1.45564       -1.30370        0.22892
N          2.81104       -1.75536        0.39066
C          2.83771       -3.03378        0.16490
C          1.54072       -3.57005       -0.31747
H          0.64586       -5.48177        0.11723
H          1.07491       -4.56788        1.56228
H         -0.95924       -3.78428        1.56106
H         -1.22737       -1.83414        0.49723
H         -1.07646       -2.66787       -1.08775
H          3.73149       -3.66157        0.25290
H          1.56715       -3.84957       -1.37206
