19

C          1.42601        0.37136        0.25360
C          2.82921        0.32169       -0.24270
O          2.92775        0.70890       -1.61687
C          3.68713        1.51678       -0.69587
C          5.17859        1.31292       -0.84830
N          5.62026        1.62411       -2.20484
C          3.19289        2.93559       -0.63772
O          3.95548        3.69972        0.29046
H          1.35966       -0.11088        1.23402
H          0.76736       -0.17860       -0.42940
H          1.03374        1.38302        0.35592
H          3.32420       -0.59622        0.04771
H          5.73380        1.92466       -0.12948
H          5.44473        0.27166       -0.63406
H          5.50343        2.62314       -2.36889
H          4.98743        1.15697       -2.85673
H          2.14277        3.01586       -0.34822
H          3.29190        3.40886       -1.61978
H          3.84624        3.28878        1.16567
