17

C          1.07675       -0.00467       -0.09333
C          2.38615        0.04043        0.18002
C          3.13826       -1.14535        0.62781
C          4.35053       -1.01291        1.21634
C          4.93491        0.36193        1.56072
C          3.85683        1.39095        1.49175
N          3.43646        2.47363        0.65919
C          3.26671        1.20866        0.02576
H          0.49195       -0.90889        0.03408
H          0.55681        0.88722       -0.42902
H          2.70666       -2.12717        0.45760
H          4.91448       -1.89100        1.51535
H          5.77285        0.59344        0.89476
H          5.32471        0.32533        2.58448
H          3.19805        1.27648        2.35257
H          4.23318        2.98346        0.28089
H          3.93346        1.09307       -0.82759
