17

C          0.83136       -0.44849       -0.75118
C          2.25898       -0.02969       -0.64120
C          3.26481       -0.80183       -0.19890
C          4.60380       -0.26643       -0.10682
C          5.76851       -0.91948       -0.01329
N          5.93534       -2.27379       -0.02920
C          7.15487       -2.89921       -0.02604
O          7.29498       -4.11420       -0.06656
H          0.27041        0.31558       -1.30427
H          0.37563       -0.53844        0.23916
H          0.72553       -1.39057       -1.29636
H          2.46859        0.98618       -0.97603
H          3.07529       -1.82397        0.12475
H          4.66662        0.82282       -0.12405
H          6.68389       -0.33217        0.04533
H          5.13210       -2.89178       -0.08828
H          8.01231       -2.20479        0.00280
