16

C          1.03510       -0.00273       -0.04774
C          2.55245        0.16604       -0.10010
C          2.96464        1.53024        0.46078
O          2.57607        2.54388       -0.47007
N          3.57844        2.85755       -1.41831
C          4.23204        1.85496       -1.91750
N          4.20112        0.49027       -1.68820
O          2.91008       -0.00071       -1.48560
H          0.65419        0.09737        0.97305
H          0.74728       -0.98710       -0.43278
H          0.53556        0.73700       -0.68365
H          3.01831       -0.63603        0.48466
H          4.04032        1.58882        0.66861
H          2.45688        1.72574        1.41146
H          5.01605        2.10268       -2.65172
H          4.69193       -0.05304       -2.39523
