14

C          1.08684        0.84042       -0.67023
O         -0.12067        0.79463        0.07430
C          0.68300       -0.40812        0.09274
C          1.49417       -0.82170        1.30533
C          2.02230        0.01645        2.25997
N          2.63602       -0.81511        3.15508
C          2.46250       -2.09650        2.71320
N          1.77795       -2.13179        1.59289
H          1.88988        1.45963       -0.29286
H          1.01480        0.81612       -1.75049
H          0.32320       -1.24501       -0.49594
H          1.99923        1.08945        2.38491
H          3.12143       -0.53995        3.99795
H          2.85064       -2.95381        3.24711
