15

C          0.94566        0.16331        0.17774
C          2.45785        0.09253        0.04108
N          3.04870        0.61574        1.26079
C          4.31399        0.78731        1.35165
N          5.39110        0.58422        0.50503
O          5.26595       -0.50375       -0.36372
C          4.64582        1.35859        2.65611
N          4.98575        1.81135        3.66991
H          0.46239       -0.25923       -0.71092
H          0.61162        1.19782        0.29151
H          0.60507       -0.39905        1.05289
H          2.75728        0.68301       -0.83182
H          2.74575       -0.95305       -0.11162
H          6.30135        0.59350        0.97281
H          4.72557       -0.14978       -1.09540
