17

C          0.97605       -0.17789        0.41470
C          2.48201       -0.26136        0.58610
O          2.98599        1.06340        0.73851
C          4.32506        1.12887        0.90655
C          4.96208        2.34031        1.02690
N          6.30109        2.09760        1.18726
C          6.52366        0.74442        1.17153
C          5.30880        0.11505        0.99681
H          0.54567       -1.17215        0.26665
H          0.71840        0.45148       -0.44370
H          0.51346        0.27898        1.29591
H          2.91906       -0.73406       -0.30174
H          2.70777       -0.86180        1.47554
H          4.57651        3.35014        1.01149
H          7.01333        2.80726        1.30075
H          7.52286        0.34666        1.28615
H          5.16635       -0.95537        0.94481
