21

C          1.07005       -0.42883        0.28185
C          2.58169       -0.55726        0.27348
O          2.99211       -0.89589       -1.05254
C          4.34874       -1.04452       -1.15646
C          4.89527       -1.81779       -2.10048
C          6.36943       -2.01388       -2.28357
C          6.75607       -3.47700       -2.07244
N          6.74637       -1.58195       -3.62599
H          0.70442       -0.18453        1.28260
H          0.60184       -1.36150       -0.04941
H          0.74744        0.35354       -0.41353
H          2.88905       -1.34601        0.97076
H          3.03165        0.39449        0.57943
H          4.93241       -0.46899       -0.44988
H          4.23058       -2.34317       -2.78169
H          6.92305       -1.40118       -1.56235
H          6.23818       -4.14132       -2.77431
H          6.50526       -3.80366       -1.05686
H          7.83408       -3.62009       -2.20861
H          6.31312       -2.19439       -4.31514
H          7.75108       -1.69478       -3.74606
