16

C          0.93406        0.19204       -0.06562
C          2.40629        0.04643       -0.04987
N          3.19976        1.12245        0.01779
O          4.49479        0.63412        0.02097
C          4.46875       -0.72547       -0.03855
C          5.78250       -1.40671       -0.04370
N          5.70813       -2.72067        0.59461
C          3.16124       -1.14555       -0.09444
H          0.63084        1.24399       -0.06869
H          0.49626       -0.28380        0.81784
H          0.51271       -0.28393       -0.95679
H          6.52714       -0.79777        0.48054
H          6.12261       -1.52934       -1.07718
H          5.44826       -2.59168        1.57230
H          6.64013       -3.13182        0.60487
H          2.81282       -2.16564       -0.15124
