17

C          1.19012        0.03106       -0.13829
C          2.69726        0.04789       -0.35349
C          3.20063       -1.30992       -0.83280
C          4.69795       -1.38894       -0.92858
C          5.56324       -0.36881       -1.00300
C          5.24106        1.08812       -0.99335
N          4.13703        1.74881       -1.11404
O          2.99733        0.97645       -1.40020
H          0.90158       -0.74543        0.57744
H          0.65456       -0.13576       -1.07862
H          0.85462        0.99827        0.25132
H          3.17273        0.34154        0.59179
H          2.79876       -1.53423       -1.83028
H          2.85293       -2.09539       -0.15353
H          5.10410       -2.39905       -0.92756
H          6.62927       -0.57859       -1.03555
H          6.13875        1.71331       -0.84527
