17

C          1.14837        0.02034        0.07086
N          2.57954        0.00731        0.12842
C          3.48371        1.18771        0.01188
C          4.66411        0.90597        1.03705
C          4.80026       -0.34828        0.06417
C          4.59356        0.77508       -1.04664
C          3.37827       -1.11962        0.15249
O          3.04185       -2.28382        0.19988
H          0.78310        1.04979        0.07157
H          0.75509       -0.51706        0.93757
H          0.82440       -0.49472       -0.83728
H          3.02704        2.17419       -0.03287
H          4.36522        0.68388        2.06568
H          5.49472        1.62011        1.04735
H          5.71778       -0.92998        0.06894
H          4.22722        0.42810       -2.01709
H          5.41827        1.47878       -1.20124
