17

C          1.05640       -0.19701        0.10849
C          2.56136       -0.05935       -0.04754
C          2.92980        0.92676       -1.14432
O          2.06580        1.51401       -1.79717
C          4.41111        1.13273       -1.37339
C          4.84994        2.09616       -2.44891
N          3.89913        2.74405       -3.16708
O          6.04060        2.29960       -2.67776
H          0.81431       -0.91037        0.90187
H          0.59769       -0.54886       -0.82166
H          0.60010        0.76596        0.36136
H          2.99577       -1.03280       -0.29744
H          2.99801        0.29088        0.89320
H          4.84436        0.15709       -1.62134
H          4.84371        1.48585       -0.43034
H          2.90609        2.59105       -2.99601
H          4.17710        3.39187       -3.89002
