21

C          0.43555       -0.13904       -0.12929
C          1.91645       -0.23350       -0.48008
C          2.30465       -1.58671       -1.09171
C          3.25520       -1.27772       -2.23912
C          3.22065        0.21639       -2.38125
C          4.49646        0.91374       -2.73961
C          1.89216        0.84739       -2.73221
N          2.37646        0.85319       -1.35648
H          0.17499       -0.89441        0.61821
H         -0.20479       -0.29966       -1.00505
H          0.19553        0.84280        0.29051
H          2.47736       -0.12280        0.46046
H          2.79824       -2.22303       -0.34875
H          1.43164       -2.13313       -1.46421
H          4.26073       -1.64562       -2.01175
H          2.92461       -1.76518       -3.16338
H          5.36728        0.34737       -2.38808
H          4.55783        1.90951       -2.28986
H          4.58175        1.02484       -3.82483
H          1.90062        1.80443       -3.24368
H          1.05311        0.21385       -2.99112
