19

C          1.22179        0.21895        0.12408
N          2.59854       -0.08237       -0.26193
C          2.80000       -1.53816       -0.42496
C          2.54791       -1.84525       -1.90890
C          2.98724       -0.59814       -2.60853
O          4.12082       -0.70638       -3.47324
C          2.10279        0.59546       -2.78147
C          2.99090        0.50613       -1.57505
H          1.00360       -0.20633        1.11087
H          0.48016       -0.17930       -0.57706
H          1.07540        1.30074        0.20452
H          2.19170       -2.15195        0.24872
H          3.84977       -1.75121       -0.19283
H          1.48240       -2.02769       -2.08813
H          3.11132       -2.72625       -2.22722
H          3.88467       -1.16128       -4.30070
H          1.03368        0.47327       -2.67435
H          2.37462        1.32601       -3.53611
H          3.86778        1.14755       -1.54169
