21

C          1.04281        0.05937       -0.00492
C          2.56620        0.04768       -0.01699
O          3.00214       -1.28474        0.26276
C          3.11413        0.52459       -1.37242
C          4.61926        0.55979       -1.39888
C          5.34530        1.66096       -1.64787
C          6.83892        1.69120       -1.67867
N          7.28247        2.16270       -2.98078
H          0.66605       -0.29703        0.96021
H          0.63966       -0.61732       -0.76717
H          0.64888        1.06381       -0.18495
H          2.93874        0.69080        0.78877
H          2.72714       -1.84970       -0.47933
H          2.70331        1.51370       -1.60746
H          2.78807       -0.16095       -2.16444
H          5.12371       -0.38552       -1.20621
H          4.84629        2.60984       -1.83511
H          7.26828        0.70364       -1.47815
H          7.20056        2.37372       -0.90214
H          6.99992        1.48147       -3.68521
H          8.30030        2.17524       -2.99720
