14

C          1.05749       -0.13011        0.16927
C          2.57227       -0.07958        0.06131
N          3.23318       -0.96716        0.99465
O          2.98891       -0.71728        2.35388
C          3.06018       -1.95023        2.98672
O          2.97591       -2.10262        4.19481
N          3.20381       -2.94897        2.04035
C          3.26137       -2.31709        0.91883
H          0.60511        0.53497       -0.57431
H          0.71676        0.19437        1.15879
H          0.67597       -1.14238       -0.00423
H          2.91443        0.94622        0.23951
H          2.87187       -0.33934       -0.95995
H          3.32903       -2.77212       -0.08082
