21

C          0.96672       -0.11485       -0.08733
C          2.48025       -0.06445       -0.02828
O          3.00559       -0.93481       -1.02780
C          4.42999       -0.94669       -1.00804
C          4.89209       -1.90377       -2.05904
C          5.68208       -2.96354       -1.81768
C          6.15533       -3.92239       -2.85858
N          7.61050       -3.94494       -2.85698
H          0.52612        0.54701        0.66359
H          0.60849       -1.13431        0.08694
H          0.60893        0.18534       -1.07723
H          2.82280       -0.38613        0.96122
H          2.82635        0.95915       -0.21264
H          4.78565       -1.24154       -0.01418
H          4.80883        0.05513       -1.23928
H          4.55285       -1.69652       -3.07097
H          6.00628       -3.17163       -0.80006
H          5.79105       -3.65412       -3.85619
H          5.77668       -4.92257       -2.62411
H          7.94875       -3.03416       -3.16490
H          7.93078       -4.61385       -3.55431
