17

C          1.83035       -0.95177        1.37199
C          3.09648       -1.22611        1.00504
C          3.56404       -0.88682       -0.39144
C          4.18910        0.48592       -0.37692
O          5.34744        0.70563       -0.71651
C          4.04644       -1.94498        1.87341
C          5.41874       -1.39991        2.17875
N          4.35576       -1.34733        3.17224
H          1.12778       -0.45942        0.70679
H          1.46427       -1.22933        2.35756
H          2.73245       -0.87046       -1.10467
H          4.29254       -1.62041       -0.75321
H          3.52713        1.31158       -0.06293
H          3.93505       -3.02600        1.87657
H          5.74658       -0.45273        1.77150
H          6.21446       -2.10850        2.37704
H          3.97370       -0.40294        3.24046
