17

C          1.01752        0.06318        0.06120
C          2.53789       -0.01832        0.19255
N          3.18093        1.22482       -0.22911
C          3.63107        1.28486       -1.62814
C          4.30000        0.01009       -2.12448
O          5.10257        0.00643       -3.05520
C          3.89863       -1.27296       -1.51306
C          3.06423       -1.25670       -0.46689
H          0.62595        0.94803        0.57562
H          0.54609       -0.81251        0.52729
H          0.69192        0.10067       -0.98340
H          2.75036       -0.12163        1.26414
H          3.97932        1.40850        0.38053
H          4.37673        2.08734       -1.69761
H          2.80369        1.53492       -2.29850
H          4.26946       -2.18003       -1.97012
H          2.74912       -2.20580       -0.04408
