17

C          1.00659        0.09456        0.03182
C          2.52350        0.01071        0.04873
C          3.01423       -1.39366        0.33072
O          2.27748       -2.35294        0.52344
C          4.52556       -1.59362        0.37075
C          5.03821       -2.98321        0.64957
N          5.28523       -0.55628        0.16249
O          6.64073       -0.90013        0.23138
H          0.68340        1.11960       -0.17397
H          0.58502       -0.21026        0.99551
H          0.58512       -0.55857       -0.73961
H          2.91135        0.67889        0.82471
H          2.91142        0.32756       -0.92500
H          4.22974       -3.70229        0.79383
H          5.64994       -2.96837        1.55628
H          5.64993       -3.31932       -0.19273
H          7.08804       -0.04940        0.06065
