19

C          0.98510        0.11848        0.21895
C          2.47614        0.11711        0.22289
C          3.21841       -0.96251       -0.51438
C          4.65565       -1.27698       -0.42732
C          5.08647       -0.21454       -1.36813
N          6.02430        0.80017       -1.12987
C          4.61714        1.21512       -0.89698
C          3.24683        0.46529       -1.04262
H          0.60608       -0.66015        0.88844
H          0.57585       -0.06290       -0.78028
H          0.60783        1.08393        0.57035
H          2.87159        0.42449        1.18440
H          2.65807       -1.69660       -1.08199
H          4.89358       -2.27815       -0.79815
H          5.05159       -1.15114        0.58509
H          4.99045       -0.51741       -2.40950
H          6.35870        1.23328       -1.99190
H          4.66588        1.64525        0.10291
H          2.66364        0.69188       -1.93287
