13

C          1.01366        0.05713       -0.11922
C          2.53903        0.00648       -0.09796
C          3.04570        0.57718        1.21657
C          3.48032        1.06674        2.34417
C          3.04621       -1.41320       -0.29554
O          2.32394       -2.39448       -0.44798
C          4.49084       -1.55611       -0.36705
N          5.64833       -1.64379       -0.43488
H          0.65256        1.08498       -0.00319
H          0.58155       -0.54046        0.69234
H          0.62203       -0.33506       -1.06405
H          2.92160        0.61889       -0.92377
H          3.83690        1.46767        3.26601
