15

C          1.10043        0.27166       -0.03412
C          2.58025        0.11259       -0.06119
C          3.30943       -1.00029       -0.12774
C          4.74689       -0.65772       -0.12033
C          4.66508        0.84752       -0.35320
O          3.33434        1.28569       -0.00360
C          2.76170       -2.41396       -0.23689
N          2.30730       -3.58672       -0.32744
H          0.57743       -0.68782       -0.08811
H          0.77144        0.88046       -0.88220
H          0.79074        0.77136        0.88913
H          5.32468       -1.15283       -0.90569
H          5.19463       -0.88612        0.85241
H          4.83600        1.09511       -1.40885
H          5.39589        1.39585        0.24909
