20

C          0.93966       -0.12216        0.01213
C          2.45279       -0.08075        0.00061
C          3.12546        0.99666        0.88363
C          4.25796       -0.03352        1.17073
C          3.19111       -1.12943        0.86565
C          5.54513       -0.00770        0.29394
N          6.16854       -1.20069        0.13376
N          6.03395        1.05379       -0.24817
H          0.52870        0.72822       -0.54118
H          0.54073       -0.08672        1.03126
H          0.57572       -1.03893       -0.46242
H          2.82995       -0.06277       -1.03217
H          2.55635        1.26946        1.78160
H          3.39733        1.91789        0.36357
H          4.54710       -0.02973        2.23147
H          2.63961       -1.45748        1.75551
H          3.53222       -2.01670        0.32559
H          6.09637       -1.87171        0.88776
H          7.10784       -1.09714       -0.23671
H          5.45832        1.87130       -0.02990
