15

C          0.92289       -0.14681        0.06058
C          2.41635       -0.03346        0.08990
C          3.13282        1.06909        0.38009
C          2.57433        2.39079        0.72850
O          3.30311        3.34328        0.97934
C          3.24083       -1.24415       -0.22946
N          2.56759       -2.38512       -0.52868
O          4.46600       -1.24097       -0.23014
H          0.40716        0.78347        0.30542
H          0.58265       -0.89516        0.78436
H          0.58209       -0.44225       -0.93754
H          4.22132        1.05871        0.37696
H          1.48057        2.48752        0.75421
H          1.56536       -2.48652       -0.55380
H          3.13043       -3.19876       -0.74322
