11

C          1.20900        0.17021        0.01969
C          2.67326        0.29441        0.01777
C          3.57855        1.31681        0.01737
N          4.83906        0.79929        0.01526
N          4.75193       -0.52846        0.01433
O          3.39364       -0.86254        0.01591
C          3.33811        2.71627        0.01883
N          3.10550        3.85392        0.02006
H          0.72500        1.15149        0.01862
H          0.87171       -0.37270        0.90802
H          0.86956       -0.37564       -0.86601
