21

C          0.90897       -0.17729       -0.18180
C          2.41854       -0.05238       -0.03068
O          3.03320       -1.25630       -0.49100
C          2.96267        1.11605       -0.84447
C          2.45842        2.53943       -0.46310
C          3.88492        3.04890       -0.76603
C          4.37312        1.62451       -0.42666
N          5.36975        1.20697       -1.40513
H          0.54391       -1.06157        0.35064
H          0.62516       -0.29623       -1.23299
H          0.39426        0.70373        0.21338
H          2.66647        0.05911        1.03024
H          2.71068       -1.43134       -1.39193
H          2.84660        0.93954       -1.92552
H          2.16629        2.65414        0.58753
H          1.66810        2.94720       -1.09858
H          4.24576        3.84330       -0.10686
H          4.01305        3.36984       -1.80727
H          4.65071        1.47525        0.62196
H          5.11012        1.35165       -2.37907
H          5.60640        0.21679       -1.32342
