14

C          0.99344        0.93468       -0.35017
N          2.43092        0.73751       -0.03677
C          2.20999       -0.72664       -0.17454
C          0.71329       -0.51279        0.13385
O          0.29359       -0.62435        1.50975
C         -0.89911       -1.22790        1.41202
N         -1.27994       -1.61104        0.24271
O         -0.23948       -1.25873       -0.66032
H          0.78852        1.10549       -1.41212
H          0.51107        1.72575        0.22920
H          2.66545        1.01135        0.92234
H          2.76999       -1.33175        0.54740
H          2.42084       -1.10642       -1.17923
H         -1.44315       -1.33386        2.35617
