23

C          3.01005        0.89689       -1.17479
C          2.56983       -0.03256       -0.03901
C          1.04588        0.01625        0.10229
C          3.11088       -1.49143       -0.16822
C          2.59329       -2.22074       -1.43035
N          2.95475       -3.63756       -1.44827
C          4.65367       -1.48990       -0.08466
O          5.20067       -2.80582       -0.04868
H          2.57740        1.89499       -1.04518
H          2.69295        0.52497       -2.15312
H          4.09699        1.02171       -1.18846
H          2.97965        0.38400        0.89159
H          0.53121       -0.33129       -0.79777
H          0.71058        1.04377        0.29309
H          0.71534       -0.59493        0.94862
H          2.73808       -2.05436        0.69935
H          2.98787       -1.74726       -2.33512
H          1.50223       -2.16993       -1.48022
H          3.97856       -3.70515       -1.41850
H          2.68292       -4.04214       -2.34409
H          4.98651       -0.97510        0.82210
H          5.09948       -0.98277       -0.94490
H          4.66201       -3.32070        0.57940
