21

C          1.28329       -0.40942        0.21724
C          2.76822       -0.11432        0.38305
C          2.96323        1.40710        0.30918
N          2.26898        2.05363        1.42656
C          3.97599       -0.41277        1.39366
C          3.28053       -1.53788        0.88282
C          3.86005       -2.52675       -0.06109
O          4.90197       -3.24261        0.58299
H          0.81262        0.30323       -0.46945
H          0.76376       -0.37020        1.17868
H          1.11908       -1.39478       -0.23529
H          2.55027        1.79930       -0.62576
H          4.01836        1.70937        0.31509
H          2.42582        1.51823        2.28131
H          1.26218        2.02121        1.26859
H          3.86897       -0.15148        2.43465
H          4.98795       -0.22928        1.02460
H          2.67979       -2.06131        1.62727
H          4.24051       -2.07406       -0.97246
H          3.08313       -3.25701       -0.33698
H          5.58040       -2.58724        0.81539
