21

C          0.77962        0.23044        0.05263
C          2.26342       -0.06073        0.13494
N          3.07141        1.11132        0.58823
C          3.97793        0.16539        1.30341
C          5.21123       -0.15691        0.46502
C          2.77559       -0.82030        1.38469
C          2.99922       -2.30838        1.24928
O          1.74075       -2.97388        1.27359
H          0.57187        0.97913       -0.71901
H          0.37723        0.59586        1.00292
H          0.23229       -0.67966       -0.21503
H          2.62635       -0.47117       -0.81779
H          2.56310        1.72943        1.22197
H          4.29207        0.52715        2.29059
H          4.96436       -0.40540       -0.57229
H          5.75459       -1.00465        0.89250
H          5.89316        0.70077        0.44916
H          2.17366       -0.61509        2.28479
H          3.50296       -2.56812        0.31195
H          3.60316       -2.69505        2.07834
H          1.33277       -2.80748        2.13932
