19

C          1.34934       -0.11057        0.45460
C          2.72417        0.01331       -0.12741
C          3.40891       -1.26984       -0.53232
C          3.97784       -0.44180        0.58874
C          5.16464        0.42400        0.36104
N          4.58172        1.61068       -0.24727
C          3.67897        2.35128        0.63087
C          3.21087        1.36441       -0.42687
H          1.17789       -1.09334        0.90548
H          0.60511        0.02680       -0.33813
H          1.17108        0.64900        1.22188
H          3.92540       -1.29050       -1.48487
H          2.95381       -2.21992       -0.26641
H          3.89343       -0.80061        1.60792
H          5.86283       -0.05044       -0.33714
H          5.70224        0.65344        1.28662
H          3.57595        3.40854        0.42499
H          3.63418        2.07458        1.67717
H          2.76261        1.82491       -1.30563
