19

C          1.03667        0.07280        0.11088
C          2.54634       -0.07071        0.09566
O          3.18866        0.96187        0.91362
C          4.20664       -0.00235        1.31464
C          3.28852       -1.17374        0.90426
N          2.48683       -1.60526        2.08082
C          3.87989       -2.33868        0.13955
O          2.84723       -3.28049       -0.14966
H          0.73131        0.94676       -0.47398
H          0.64149        0.20158        1.12301
H          0.56329       -0.80830       -0.33358
H          2.90830        0.01170       -0.93995
H          4.45728        0.08404        2.37633
H          5.11646        0.12467        0.71761
H          2.04795       -0.81593        2.56383
H          3.03924       -2.07383        2.80045
H          4.64482       -2.85176        0.73126
H          4.33655       -2.02448       -0.80410
H          2.25223       -3.25842        0.62769
