19

C          0.91715        0.13885        0.20239
C          2.41422       -0.07588       -0.02260
O          3.16626        0.93786        0.72109
C          3.98589       -0.08842        1.34034
C          3.00541       -1.18575        0.90458
N          3.72511       -2.25617        0.19678
C          2.72499       -0.15774       -1.49253
C          3.52545        0.72547       -2.10394
H          0.68373        0.23742        1.26855
H          0.33693       -0.70638       -0.18561
H          0.56775        1.04990       -0.29598
H          4.06578        0.05878        2.42125
H          4.98912       -0.09774        0.89993
H          2.34812       -1.54074        1.70389
H          4.36092       -1.91954       -0.52950
H          3.10791       -2.92311       -0.26562
H          2.25737       -0.95623       -2.06179
H          3.99539        1.54398       -1.56484
H          3.72253        0.65587       -3.16875
