17

C          0.93430       -0.00608        0.01677
N          2.38262       -0.06122       -0.06611
C          2.98354       -0.78240       -1.17705
C          3.10480        0.58982        0.94025
O          2.55303        1.18764        1.86140
C          4.64885        0.57055        0.91497
C          5.35273        1.29074        2.03517
O          5.28340        0.00263        0.03330
H          0.46251       -0.53961       -0.81189
H          0.61672        1.04118       -0.00099
H          0.61520       -0.45416        0.96293
H          2.21643       -1.20644       -1.83068
H          3.59696       -1.59958       -0.78733
H          3.59722       -0.09385       -1.76443
H          4.66059        1.74444        2.74626
H          5.97513        2.08382        1.61146
H          5.97877        0.57655        2.57771
