21

C          0.51148       -0.19789       -0.08687
C          1.98198        0.09706       -0.24446
N          2.67932        0.46506        0.99552
C          2.80191       -0.70027       -1.22757
C          2.39390        0.70747       -1.56684
C          3.40903        1.81583       -1.65422
C          2.74247        3.15578       -1.97421
O          1.90114        3.58649       -0.90981
H          0.33885       -0.90946        0.72691
H          0.07816       -0.61741       -1.00087
H         -0.02784        0.72759        0.14546
H          2.60369       -0.27781        1.69114
H          2.28448        1.30191        1.41957
H          2.32341       -1.51289       -1.76275
H          3.84641       -0.88984       -1.00077
H          1.65499        0.78912       -2.35931
H          3.98129        1.90687       -0.72492
H          4.11949        1.57659       -2.45345
H          2.13819        3.09122       -2.88569
H          3.50324        3.92659       -2.12702
H          1.33228        2.83427       -0.67314
