19

C          1.00119        0.01257        0.40792
C          2.44813       -0.05534        0.08045
C          3.17039       -1.14442       -0.21358
C          4.54239       -0.74459       -0.57697
C          5.54967       -0.51440        0.57098
C          5.74491        0.88222       -0.03666
N          4.48402        0.73527       -0.78668
C          3.29606        1.17264       -0.01381
H          0.51796       -0.96257        0.29068
H          0.49664        0.71284       -0.26644
H          0.85008        0.35113        1.43751
H          2.80686       -2.15893       -0.24190
H          4.94844       -1.29247       -1.43401
H          6.43715       -1.15411        0.56424
H          5.13267       -0.49953        1.58508
H          6.61659        0.94581       -0.69939
H          5.80436        1.71901        0.66741
H          2.78581        1.96791       -0.56528
H          3.53592        1.54569        0.99081
