13

C          2.29895        1.19291        0.68233
C          2.43123        0.04197        0.01364
C          3.04561       -0.04827       -1.32384
N          3.16176       -1.15485       -1.97895
O          3.77956       -0.85543       -3.23126
C          4.02405        0.49395       -3.31296
O          4.52075        1.06965       -4.26762
C          3.58545        1.12865       -2.04521
H          1.82912        1.20136        1.66203
H          2.63711        2.14885        0.29714
H          2.07525       -0.89416        0.43420
H          2.80125        1.86328       -2.23346
H          4.44132        1.54784       -1.51263
