15

C          3.00225        1.48017        0.10823
C          2.57638        0.01478        0.04822
C          3.11328       -0.77264       -1.16324
O          2.62144       -2.11425       -1.07266
C          2.60661       -0.16633       -2.46173
C          2.17199        0.35377       -3.57557
C          4.63328       -0.77264       -1.16324
N          5.89425       -0.77264       -1.16324
H          2.57279        1.95751        0.99501
H          2.65523        2.03727       -0.76665
H          4.09051        1.58294        0.17305
H          1.47924       -0.03056        0.05634
H          2.89583       -0.48141        0.97454
H          1.68475       -2.08870       -1.33090
H          1.82611        0.77801       -4.49076
