14

O          2.71240       -0.66694        1.13403
C          2.35716        0.09107       -0.02952
C          2.90219        1.52243        0.08495
O          2.44822        2.10487        1.30402
C          4.42219        1.52243        0.08495
C          5.72604        1.52243        0.08495
C          7.25763        1.52186        0.08429
C          8.45700        1.52219        0.08489
H          2.46758       -1.59194        0.95376
H          1.26344        0.10927       -0.07382
H          2.74950       -0.41561       -0.91728
H          2.54087        2.13377       -0.74801
H          2.67055        1.44138        1.98646
H          9.52310        1.52344        0.08871
