16

C          1.01703        0.10899        0.06052
N          2.45066        0.09127        0.06544
C          3.28571        1.18627        0.07017
C          4.55783        0.75733        0.07639
C          5.82080        1.53025        0.08377
N          4.55166       -0.61787        0.07557
C          3.22685       -1.08458        0.06896
O          2.85909       -2.24461        0.06717
H          0.64068        1.13549        0.05764
H          0.65355       -0.41819        0.94746
H          0.65939       -0.42108       -0.82707
H          2.90996        2.19801        0.06908
H          5.62765        2.60789        0.08216
H          6.42139        1.29409       -0.80036
H          6.41036        1.29480        0.97549
H          5.35149       -1.23120        0.07969
