19

C          0.74709       -0.01676       -0.19170
C          2.22580       -0.03805        0.12420
C          2.49531       -0.01609        1.61775
N          3.88941       -0.03102        1.98787
C          4.25603       -0.00891        3.30849
O          3.49126        0.04272        4.25970
C          3.13320       -0.79885       -0.82670
C          3.13554        0.70569       -0.83638
H          0.20426       -0.71733        0.45170
H          0.54361       -0.29513       -1.23107
H          0.34224        0.98673       -0.02370
H          2.02397       -0.88764        2.08755
H          2.04465        0.88040        2.05981
H          4.60582       -0.10212        1.28043
H          5.35078       -0.04462        3.43157
H          2.68737       -1.30636       -1.67695
H          4.00432       -1.31544       -0.44323
H          2.68587        1.20592       -1.68915
H          4.00375        1.22766       -0.45277
