17

C          0.94844       -0.07546        0.04058
C          2.25230       -0.07546        0.04058
C          3.77230       -0.07546        0.04058
C          4.31711       -1.47823       -0.32725
N          3.99701       -1.89213       -1.71473
C          4.46779       -0.83476       -2.62978
C          3.96180        0.56708       -2.25092
O          4.26122        0.90932       -0.88860
H         -0.11731       -0.06826        0.04343
H          4.12706        0.20794        1.03719
H          3.91884       -2.23257        0.36084
H          5.40850       -1.48233       -0.21623
H          2.97975       -1.95125       -1.79515
H          4.14588       -1.07652       -3.64833
H          5.56451       -0.83923       -2.62811
H          2.88208        0.65366       -2.42301
H          4.44494        1.31427       -2.88815
