21

C          0.93536       -0.08531        0.25203
C          2.41071        0.12526       -0.01709
C          2.87876        1.06958       -1.12810
N          2.16415        1.77127       -1.95881
O          0.79372        1.62750       -1.79330
C          4.40612        1.19322       -1.26808
C          4.86073        0.71098       -2.64284
C          4.84813        2.62994       -1.00466
H          0.80460       -0.78537        1.08448
H          0.42643       -0.51269       -0.61658
H          0.44189        0.85058        0.53263
H          2.86121       -0.85214       -0.23123
H          2.87579        0.48605        0.90926
H          0.43450        2.21681       -2.48214
H          4.87441        0.55155       -0.51181
H          4.38811        1.28105       -3.45011
H          4.59956       -0.34252       -2.78635
H          5.94610        0.80954       -2.75111
H          4.43144        3.32365       -1.74260
H          5.93957        2.71307       -1.04241
H          4.51696        2.96100       -0.01474
