16

O          1.14891        0.42930       -0.27665
C          2.40729        0.05929        0.05932
O          2.72540       -1.11612        0.17491
C          3.37550        1.21536        0.28009
C          2.95954        2.11974        1.44898
C          2.60118        3.48758        0.85414
C          3.00877        3.37829       -0.57512
C          3.42758        2.14945       -0.88982
H          1.04880        1.39565       -0.37846
H          4.37011        0.79348        0.46507
H          3.79973        2.23494        2.14577
H          2.12357        1.71357        2.03021
H          3.14014        4.29151        1.36315
H          1.52610        3.68296        0.92960
H          2.97654        4.21047       -1.26788
H          3.77813        1.84997       -1.87021
