19

C          1.64390       -0.05041        0.46795
C          3.07061       -0.03383       -0.08611
C          3.54340       -1.42110       -0.49118
C          3.98321       -2.01642        0.89810
O          4.40113       -0.86042        1.68478
C          4.39805        0.19931        0.72791
C          3.93989        1.64176        0.69687
N          3.37853        1.28680       -0.70790
H          1.46854       -0.90635        1.12765
H          0.92413       -0.12328       -0.35583
H          1.38920        0.84685        1.04012
H          4.39412       -1.39211       -1.18454
H          2.76500       -2.03811       -0.95145
H          4.81558       -2.71678        0.79460
H          3.15072       -2.49486        1.42062
H          5.34609        0.13545        0.16105
H          4.73370        2.39372        0.66470
H          3.19762        1.94736        1.44082
H          4.09367        1.25168       -1.43598
