17

C          1.21781       -0.49709        0.55962
N          2.40811        0.13106        0.00204
C          2.93339        1.20154        0.86296
C          4.11119        1.99467        0.37259
C          2.76685        2.65483        0.48609
O          2.61072        3.56616        1.59330
C          2.39782        4.87224        1.28693
O          2.29529        5.35222        0.16971
H          0.87432       -1.29147       -0.11029
H          0.40371        0.22440        0.68048
H          1.43491       -0.95565        1.52989
H          2.19418        0.47845       -0.93312
H          2.94953        0.96431        1.92557
H          4.49527        1.79219       -0.61968
H          4.87651        2.25117        1.09532
H          2.23638        2.87150       -0.43704
H          2.32244        5.44891        2.22088
