16

C          1.13644        0.07638        0.89540
O          2.44369        0.54064        0.45667
C          2.11258        0.17424       -0.91693
C          0.91671       -0.66294       -0.42824
C         -0.39547       -0.70288       -1.14930
C         -0.47039       -2.15666       -1.50763
N          0.46093       -2.89930       -0.99924
N          1.33598       -2.07128       -0.36049
H          0.47213        0.92992        1.06855
H          1.19162       -0.53034        1.80221
H          2.93386       -0.35871       -1.40620
H          1.86256        1.06668       -1.50010
H         -0.43703       -0.08208       -2.04648
H         -1.24514       -0.47068       -0.50067
H         -1.29631       -2.54610       -2.12141
H          1.67673       -2.45154        0.52411
