16

C          1.03780        0.08922        0.08442
C          2.50412        0.10368       -0.12055
C          3.31748       -0.91745       -0.35762
O          4.63906       -0.60531       -0.59655
C          4.62549        0.76949       -0.56417
C          3.30183        1.34981       -0.13747
N          5.64675        1.51409       -0.87146
N          6.74466        0.85063       -1.30750
H          0.63623       -0.92891        0.03771
H          0.54419        0.67819       -0.69577
H          0.77700        0.51464        1.05706
H          3.08625       -1.96745       -0.42219
H          2.94574        2.06880       -0.87850
H          3.38596        1.80562        0.85304
H          7.57772        1.43436       -1.23350
H          6.91067       -0.02272       -0.80423
