21

C          0.86843        0.09269       -0.04988
C          2.38742        0.04805        0.01061
C          3.00370       -0.10034       -1.38222
C          4.53926       -0.10615       -1.36634
C          5.12626       -1.28276       -0.59152
C          5.04140       -0.18726       -2.78877
N          5.83649        0.71580       -3.26383
O          6.15868        0.38259       -4.58509
H          0.45343        0.18854        0.95860
H          0.46719       -0.82337       -0.49527
H          0.52270        0.94507       -0.64269
H          2.68105       -0.79188        0.64879
H          2.75701        0.96439        0.48493
H          2.65784        0.72617       -2.01764
H          2.63140       -1.02005       -1.85228
H          4.90431        0.82939       -0.92433
H          4.72527       -2.23650       -0.95211
H          4.91170       -1.20243        0.47832
H          6.21522       -1.32019       -0.70640
H          4.71831       -1.05474       -3.39383
H          6.76744        1.10132       -4.83913
