15

C          0.49245       -0.61930       -0.30284
C          1.70131       -0.10212       -0.04678
C          1.86365        1.17129        0.59629
C          3.03315        1.76253        0.87898
O          4.28908        1.28001        0.56063
C          5.09554        2.41423        0.23480
C          6.56481        2.19252       -0.08533
N          7.78369        2.00859       -0.35090
H          0.39717       -1.59347       -0.76921
H         -0.42552       -0.09890       -0.05194
H          2.59468       -0.65996       -0.31108
H          0.95384        1.69977        0.87937
H          3.02945        2.71933        1.39151
H          5.09528        3.12158        1.07721
H          4.65923        2.92585       -0.63487
