21

C          0.89316        0.01979        0.08994
C          2.41029        0.07651       -0.02686
C          2.98295       -1.15001       -0.67320
C          4.00838       -0.85004       -1.47533
C          4.27771        0.61958       -1.50443
C          2.99543        1.22670       -0.89372
C          2.03990        1.75885       -1.97910
N          2.64140        2.84642       -2.75080
H          0.59111       -0.79783        0.75453
H          0.40825       -0.15636       -0.87609
H          0.50094        0.95059        0.51222
H          2.82854        0.14647        0.98653
H          2.64366       -2.15678       -0.46752
H          4.60441       -1.57392       -2.01410
H          4.47671        0.96213       -2.52374
H          5.15368        0.84574       -0.88618
H          3.26345        2.06785       -0.23943
H          1.12564        2.14728       -1.51792
H          1.75030        0.95675       -2.66687
H          2.84561        3.63309       -2.13649
H          1.96688        3.18498       -3.43622
