17

C          1.12713       -0.03330        0.08950
N          2.58716       -0.00394        0.01013
C          3.14348        0.99768        0.96581
C          4.24272       -0.04369        1.29126
C          3.16541       -1.07395        0.87558
C          5.54347       -0.01976        0.45162
O          5.35270        0.21868       -0.87798
O          6.67474       -0.19705        0.89296
H          0.71028        0.82812       -0.44238
H          0.73946       -0.01903        1.11535
H          0.74539       -0.93571       -0.40084
H          2.50961        1.25291        1.82548
H          3.48592        1.92618        0.49884
H          4.48304       -0.08307        2.36214
H          2.53772       -1.41456        1.70973
H          3.52779       -1.94973        0.33020
H          4.39146        0.27581       -1.08325
