21

C          0.88828       -0.01023        0.16290
C          2.40383       -0.00959       -0.01471
N          2.87515        0.49284       -1.32464
C          2.46901        1.89031       -1.52533
C          4.35406        0.36264       -1.35933
C          4.95877        0.83654       -2.67532
C          4.56583        0.11562       -3.93838
O          5.74915        1.78197       -2.71278
H          0.63009       -0.47232        1.12203
H          0.39564       -0.58181       -0.62972
H          0.47537        1.00271        0.17502
H          2.74034       -1.04736        0.10537
H          2.85342        0.56766        0.80424
H          1.38038        1.96798       -1.61251
H          2.85731        2.29165       -2.46712
H          2.80411        2.53974       -0.70943
H          4.64497       -0.68913       -1.23866
H          4.82021        0.92938       -0.54475
H          4.08003       -0.83495       -3.70840
H          5.46533       -0.09253       -4.52409
H          3.88304        0.74460       -4.51394
