16

C         -0.54569        1.20895        0.94843
N         -1.77458        0.50231        0.51314
C         -0.99595       -0.12825       -0.58435
C         -0.44657       -1.54036       -0.25540
N          0.78309       -1.79690        0.07910
O          1.60146       -0.66007        0.29958
C          1.41173        0.40671       -0.63305
C          0.03090        0.99762       -0.46923
H         -0.02593        0.69521        1.76515
H         -0.70106        2.25054        1.24396
H         -2.49430        1.14451        0.17557
H         -1.53101       -0.13638       -1.54274
H         -1.14487       -2.38373       -0.37240
H          1.58032        0.03868       -1.65164
H          2.17487        1.16294       -0.42551
H         -0.16359        1.83973       -1.14548
