13

C          1.04980       -0.01674       -0.09998
C          2.54222        0.05339       -0.09790
C          3.23833        1.19811       -0.09667
N          4.60216        1.26795       -0.09467
C          5.21475        0.12520       -0.09398
C          4.53029       -1.22492       -0.09526
O          5.20998       -2.24021       -0.09447
O          3.18065       -1.20238       -0.09724
H          0.59167        0.97762       -0.09957
H          0.69565       -0.55172        0.78691
H          0.69803       -0.54995       -0.98887
H          2.72381        2.15700       -0.09722
H          6.31488        0.07924       -0.09235
