17

C          0.85214       -0.09622        0.15972
C          2.38156       -0.05474        0.11513
C          2.86326        1.24550       -0.53868
N          3.80214        1.06358       -1.62380
C          4.11751       -0.13567       -2.18463
C          3.73187       -1.31937       -1.71488
C          2.88359       -1.34901       -0.51140
O          2.58710       -2.44947       -0.03941
H          0.44884        0.79567        0.65088
H          0.49527       -0.97158        0.71299
H          0.43155       -0.15295       -0.85082
H          2.75225       -0.06080        1.14891
H          3.34627        1.86804        0.22485
H          2.01777        1.83784       -0.91047
H          4.05681        1.89650       -2.15285
H          4.74593       -0.06887       -3.06942
H          4.01177       -2.26059       -2.16512
