19

C          1.09513       -0.06069       -0.72021
N          2.31385       -0.03893        0.06997
C          3.02459        1.21634        0.32263
C          2.13117        2.38326        0.76479
C          2.92666        3.57863        1.21032
C          2.81847        4.13636        2.42333
C          2.98332       -1.24520        0.20804
O          2.57676       -2.33524       -0.16766
H          0.68273        0.93836       -0.87171
H          0.35529       -0.67239       -0.19408
H          1.29828       -0.51503       -1.69315
H          3.56849        1.47469       -0.59374
H          3.78280        1.02433        1.09463
H          1.45590        2.04759        1.56143
H          1.49972        2.70971       -0.06873
H          3.60438        4.02356        0.48423
H          2.14370        3.74113        3.17665
H          3.39987        5.01410        2.68604
H          3.95302       -1.14083        0.72686
