17

C          0.99138       -0.10244        0.22442
C          2.48603       -0.00623        0.00445
N          3.10023       -1.10765       -0.30993
O          4.47324       -1.01489       -0.61987
C          5.26219       -0.39739        0.39361
O          5.50237        0.98496        0.11987
C          4.38487        1.60758       -0.51228
C          3.10099        1.36022        0.25189
H          0.63110       -1.11419        0.01961
H          0.48410        0.59441       -0.44800
H          0.75809        0.16132        1.25949
H          6.23530       -0.89713        0.41547
H          4.81854       -0.51078        1.38991
H          4.31519        1.27945       -1.55530
H          4.59627        2.68122       -0.52983
H          2.36090        2.11375       -0.04092
H          3.26279        1.45319        1.33155
