20

C          0.96124       -0.08292        0.07992
C          2.45362       -0.00769        0.11190
N          3.05137        0.87184        0.84616
O          4.43729        0.70632        0.70298
C          5.10014        1.66314        1.53557
C          6.62320        1.52048        1.36455
C          7.05150        1.77790       -0.08168
N          7.35039        2.42860        2.26337
H          0.65237       -0.84140       -0.64331
H          0.54861        0.88650       -0.21051
H          0.58903       -0.35603        1.07079
H          3.01120       -0.73827       -0.49963
H          4.81982        1.47620        2.57931
H          4.77259        2.67301        1.25796
H          6.90366        0.49063        1.61689
H          6.78380        2.79031       -0.40400
H          6.57383        1.06883       -0.76595
H          8.13502        1.66139       -0.19622
H          7.14506        3.39596        2.01326
H          8.35381        2.31098        2.12446
