19

C          0.90363        0.05322       -0.03115
C          2.42401        0.16350       -0.03803
C          3.28767        1.15309        0.85385
C          2.89015        0.10699        1.96883
N          3.17707       -0.90617        0.81814
C          4.68261       -0.66581        0.57272
C          5.29489        0.05343       -0.58868
C          4.76385        0.88349        0.54155
H          0.47436        0.86140       -0.63363
H          0.44422        0.11831        0.95711
H          0.58922       -0.89385       -0.48289
H          2.71241        0.15295       -1.09732
H          2.95971        2.18569        0.96425
H          1.87322        0.11556        2.36868
H          3.57439        0.03039        2.82276
H          5.34174       -1.20150        1.24967
H          4.78584        0.05109       -1.54341
H          6.37307       -0.00644       -0.70151
H          5.42394        1.35738        1.25471
