13

C          1.14183       -0.09235       -0.21880
C          2.33412        0.00455       -0.12079
C          3.74948        0.14042        0.02146
O          4.50423       -0.58386       -0.96013
C          4.52974        0.84892       -1.06075
C          5.86471        1.45229       -0.77043
C          5.64253        2.89909       -0.84354
N          5.46754        4.04504       -0.90802
H          0.08206       -0.17231       -0.29879
H          4.13869        0.13502        1.03283
H          4.01737        1.27370       -1.91632
H          6.60009        1.13203       -1.51455
H          6.23277        1.16903        0.22117
