13

C          0.98862        0.00958       -0.01659
C          2.47637        0.12786       -0.08715
C          3.12663        1.29336       -0.10693
C          4.59522        1.28913       -0.19187
O          5.19019        2.35790       -0.25733
N          5.21480        0.07243       -0.19001
C          4.50631       -0.99860       -0.16332
O          3.15155       -1.09653       -0.12791
H          0.50223        0.98792        0.05494
H          0.69670       -0.57642        0.86066
H          0.60704       -0.49320       -0.91093
H          2.63970        2.25826       -0.07450
H          4.95625       -2.00297       -0.16644
