23

C          2.60092        1.39223       -0.87651
C          2.22651        0.20638        0.00928
N          0.83392       -0.17184       -0.24480
C          3.12414       -1.02383       -0.22236
C          4.63203       -0.81274        0.03852
C          5.40534       -2.11452       -0.23320
C          4.91197       -0.28066        1.45115
O          6.30814       -0.09606        1.65707
H          1.93933        2.24474       -0.68513
H          2.52724        1.13937       -1.93977
H          3.62269        1.73115       -0.67899
H          2.28768        0.51108        1.05758
H          0.71361       -0.42424       -1.22541
H          0.22565        0.63137       -0.08622
H          2.99827       -1.37432       -1.25636
H          2.76995       -1.84032        0.42294
H          5.01511       -0.07406       -0.67709
H          4.73993       -2.97001       -0.38327
H          6.09425       -2.37379        0.57847
H          6.00641       -2.00804       -1.14407
H          4.43483        0.68983        1.61506
H          4.54294       -0.97410        2.21346
H          6.64243        0.46350        0.93611
