16

C          0.89242        0.09440        0.04938
N          2.35073        0.08732        0.03876
C          3.10687       -0.61663       -1.01268
C          2.33891       -1.31496       -2.05568
N          1.72713       -1.86444       -2.87634
C          3.11921        0.73016        0.99889
C          2.43084        1.47810        2.11602
O          4.35150        0.70256        0.95765
H          0.45370       -0.46049       -0.77938
H          0.54562        1.13074       -0.00643
H          0.54565       -0.35200        0.98632
H          3.76271       -1.33892       -0.51045
H          3.76270        0.12290       -1.48917
H          1.34319        1.45043        2.07471
H          2.74315        2.52583        2.07709
H          2.74316        1.04295        3.06991
