14

C          0.91366        0.02566        0.04344
C          2.21752        0.02566        0.04344
C          3.73752        0.02566        0.04344
C          4.21119        1.30865       -0.65190
N          5.50245        1.08854       -1.29421
N          5.62637       -0.01332       -2.06911
C          4.97309       -1.06762       -1.69438
O          4.12370       -1.17536       -0.64940
H         -0.15213        0.01818        0.04155
H          4.12395       -0.04067        1.06570
H          4.28661        2.12492        0.07703
H          3.49239        1.63790       -1.41759
H          5.78104        1.91826       -1.82326
H          5.05337       -2.02385       -2.23201
