17

C          1.27209        1.19584        0.33759
N          2.17120        0.07648       -0.06345
C          1.32903       -1.15455       -0.15504
C         -0.03699       -0.71050        0.32037
C         -1.40480       -1.06309       -0.11675
C         -2.08468        0.08961       -0.07925
O         -1.31284        1.23602        0.19104
C         -0.04888        0.71545       -0.20167
H          1.59046        2.14452       -0.10374
H          1.25265        1.31401        1.42661
H          2.91230       -0.04020        0.62452
H          1.73572       -1.94179        0.48716
H          1.31333       -1.52152       -1.18552
H         -0.04203       -0.74159        1.42232
H         -1.81859       -2.04543       -0.26367
H         -3.13885        0.27688       -0.19197
H         -0.00435        0.76816       -1.30959
