14

C          1.13740       -0.06570        0.00616
C          2.63428       -0.03034       -0.08731
N          3.27533        1.09356       -0.11252
C          4.64101        1.02092       -0.20057
C          5.34766       -0.11123       -0.26280
C          4.60338       -1.37774       -0.23262
O          5.17127       -2.46076       -0.28985
N          3.24893       -1.25085       -0.13847
H          0.72594        0.94638       -0.03614
H          0.84234       -0.53415        0.94949
H          0.73030       -0.65315       -0.82196
H          5.15728        1.97764       -0.22017
H          6.42461       -0.14556       -0.33363
H          2.71985       -2.10943       -0.11532
