20

C          0.96250        0.01523        0.05413
C          2.45080        0.05576        0.11564
C          3.27952       -0.64253       -0.93755
C          4.59561       -1.30621       -0.63717
C          5.48892       -0.53251        0.34417
C          5.48561        0.95398        0.11372
C          4.43860        1.56635       -0.46271
C          3.22385        0.86804       -0.90271
H          0.58720       -0.85441        0.60267
H          0.59239       -0.04433       -0.97438
H          0.54395        0.91518        0.51578
H          2.79594        0.04727        1.14325
H          2.75692       -1.14822       -1.74208
H          5.13612       -1.41596       -1.58656
H          4.42110       -2.31927       -0.25802
H          6.51370       -0.91255        0.26328
H          5.16321       -0.72154        1.37450
H          6.34221        1.52933        0.44997
H          4.46942        2.64407       -0.60405
H          2.67138        1.36285       -1.69445
