19

C          1.23542        0.15155        0.26272
C          2.69334        0.42421        0.09696
C          3.45662       -0.29594       -0.97857
C          3.19037        1.18537       -1.10521
N          4.31847        2.13390       -1.05659
N          5.27396        2.04464       -2.09879
C          4.06450        3.41792       -0.62025
N          4.74455        4.47738       -0.92055
H          1.07738       -0.60048        1.04235
H          0.78066       -0.22283       -0.66134
H          0.70797        1.06447        0.55430
H          3.18593        0.59516        1.04717
H          2.92709       -0.95424       -1.65674
H          4.45935       -0.62717       -0.73342
H          2.44042        1.49350       -1.83068
H          5.66394        1.10150       -2.10816
H          4.80012        2.16641       -2.99569
H          3.18951        3.49498        0.04720
H          5.49579        4.12691       -1.53401
