17

C          0.89140        0.11841       -0.23740
C          2.39617        0.01564       -0.04152
N          2.77347       -1.33161        0.36154
C          3.91848       -1.53788        1.09784
C          4.25443       -2.98874        1.31578
O          4.61236       -0.62766        1.53841
C          3.09693        0.35804       -1.34853
O          3.34938       -0.46618       -2.22659
H          0.35927       -0.13872        0.68453
H          0.54474       -0.56446       -1.02179
H          0.60289        1.13300       -0.53158
H          2.72967        0.73023        0.71876
H          2.50466       -2.07793       -0.27038
H          3.39314       -3.63159        1.11091
H          4.54592       -3.13434        2.35947
H          5.07876       -3.27308        0.65736
H          3.30564        1.43113       -1.50251
