20

O          0.86983        0.03572        0.01697
C          2.29185        0.04164        0.03728
C          2.79504        0.98285        1.12352
O          4.22126        0.96576        1.14280
C          4.73549        1.88735        2.10088
C          6.22913        1.82554        2.06505
C          6.98921        2.26018        0.83710
C          7.04734        3.09269        2.08690
H          0.60395       -0.58048       -0.68769
H          2.66125        0.35913       -0.94379
H          2.65298       -0.97694        0.21505
H          2.40440        0.66937        2.09892
H          2.42912        1.99822        0.92817
H          4.38371        1.61296        3.10178
H          4.37751        2.89687        1.86677
H          6.60565        0.95727        2.59415
H          6.42270        2.63357       -0.00842
H          7.86887        1.68915        0.56242
H          6.53625        4.04892        2.07515
H          7.96958        3.09128        2.65629
