16

C          1.15106        0.20620       -0.01664
C          2.62962        0.00190        0.03728
C          3.27159       -0.61565        1.04012
C          2.63635       -1.18468        2.29810
N          3.77080       -1.72689        3.12984
C          4.81384       -1.44455        2.40037
N          4.61536       -0.87146        1.17492
O          5.55533        0.07760        0.79369
H          0.88119        0.74144       -0.93270
H          0.80396        0.80241        0.83237
H          0.62510       -0.75374       -0.02795
H          3.20672        0.36400       -0.80990
H          1.93649       -1.99381        2.06831
H          2.13488       -0.40008        2.87382
H          5.85587       -1.64782        2.68953
H          6.34312       -0.45889        0.59652
