16

C          0.83616       -1.83564        0.27764
C          2.32086       -2.14632        0.31116
O          2.99611       -1.02526        0.88005
C          4.30758       -1.27395        1.06115
C          5.21050       -0.25756        1.26141
N          6.41789       -0.88284        1.40196
C          6.19702       -2.22835        1.30400
N          4.93065       -2.49351        1.08347
H          0.28421       -2.62940       -0.23355
H          0.64688       -0.88493       -0.23149
H          0.44478       -1.73633        1.29570
H          2.68276       -2.30639       -0.71190
H          2.48095       -3.05567        0.90312
H          5.09973        0.81467        1.30092
H          7.31294       -0.43759        1.55117
H          6.99249       -2.95644        1.39978
