21

C          1.09558       -0.02947        0.13640
C          2.58955        0.12583       -0.03207
C          3.27844        1.26850        0.72637
C          4.30948        0.17855        1.11678
C          4.62444        0.09250        2.60675
C          5.56251        0.04908        0.22885
N          6.38723        1.26159        0.24313
O          3.33063       -0.85515        0.75142
H          0.56943        0.77057       -0.39480
H          0.79852        0.00631        1.18842
H          0.75889       -0.98344       -0.28161
H          2.88103        0.05983       -1.08795
H          2.70207        1.68126        1.56152
H          3.63630        2.08724        0.09889
H          5.28158        0.91079        2.91824
H          5.12571       -0.85134        2.84676
H          3.71492        0.14582        3.21414
H          5.28127       -0.16163       -0.80971
H          6.17116       -0.79792        0.56636
H          5.88849        2.01897       -0.22281
H          7.21976        1.09685       -0.32337
