17

C          0.74263        0.46864       -0.33865
N          2.08982        0.99704       -0.00001
C          2.43370       -0.34221        0.54255
C          1.38069       -0.93770       -0.42847
C          1.87733       -1.47245       -1.76495
N          1.50801       -2.91470       -1.78346
C          0.80157       -3.05382       -0.70801
N          0.63982       -2.01695        0.16094
H          0.31911        0.86959       -1.26328
H          0.01263        0.60087        0.46989
H          2.10668        1.75367        0.67810
H          2.19302       -0.44830        1.60845
H          3.47128       -0.64982        0.38748
H          2.95891       -1.36182       -1.89075
H          1.37465       -0.98103       -2.60553
H          0.29709       -3.99196       -0.42709
H         -0.31482       -1.83445        0.44671
