16

C          1.37706       -0.06346       -0.44171
C          2.74698        0.19363        0.08819
C          3.52802       -0.97216        0.64041
N          3.93970       -0.31622       -0.60106
C          4.89255        0.67755       -0.47645
N          6.10165        0.64940       -0.89945
O          4.44574        1.77577        0.19798
C          3.07367        1.57827        0.54496
H          1.26634       -1.08306       -0.82463
H          1.13079        0.63004       -1.25144
H          0.64009        0.07286        0.35789
H          3.18194       -1.98226        0.46747
H          4.21154       -0.83611        1.46834
H          6.23771       -0.25973       -1.35240
H          2.47308        2.34035        0.03650
H          2.95667        1.68871        1.62699
