15

C          3.29508       -0.42076       -1.24576
C          2.60254        0.07196        0.00225
N          1.30426        0.11817        0.06632
N          3.34608        0.46104        1.08867
O          2.60380        0.96457        2.16384
C          4.78007        0.53976        1.22783
C          5.36329        1.85656        0.74174
N          5.84712        2.94896        0.33849
H          2.57378       -0.69954       -2.01541
H          3.90185       -1.29692       -1.00049
H          3.94421        0.36697       -1.63625
H          0.88685       -0.20813       -0.81333
H          1.67608        0.84416        1.84992
H          5.26544       -0.27937        0.68597
H          5.05615        0.41293        2.28165
