14

C          1.07064       -0.11627        0.00577
C          2.55992       -0.04728        0.11453
C          3.23368        1.16474        0.17596
C          4.61936        1.15635        0.29386
C          5.25648       -0.06647        0.35016
O          6.61243       -0.15913        0.46738
N          4.58871       -1.23105        0.29500
N          3.22495       -1.22167        0.17744
H          0.63424        0.86772       -0.19662
H          0.64698       -0.49644        0.94017
H          0.78520       -0.78578       -0.81142
H          2.69417        2.10492        0.13194
H          5.16759        2.08861        0.34032
H          6.97445        0.73790        0.49578
