17

C          1.59810        0.24706       -0.37036
C          2.95352       -0.26495        0.02584
C          3.64811        0.46542        1.16157
C          4.20096        0.54173       -0.23932
C          5.41912       -0.22665       -0.60019
N          5.53877       -1.50524       -0.41351
O          4.46273       -2.11935        0.27985
C          3.17309       -1.73392       -0.21385
H          1.51302        1.33074       -0.24678
H          0.82939       -0.22143        0.25523
H          1.37884        0.00574       -1.41657
H          4.18203       -0.11634        1.90484
H          3.19770        1.36713        1.56251
H          4.08689        1.47605       -0.77517
H          6.24654        0.32443       -1.07526
H          2.41992       -2.33135        0.31054
H          3.11515       -1.97441       -1.28219
