16

C          1.17926       -0.07780       -0.20959
C          2.68015       -0.11656       -0.14980
O          3.31325       -1.06510        0.30451
N          3.27904        1.01403       -0.69230
N          4.68859        1.13168       -0.63917
C          5.24846        1.15072       -1.99807
C          6.75310        1.24798       -1.89791
O          7.52339        0.47897       -2.46759
H          0.76825       -0.93359        0.33229
H          0.85531       -0.12692       -1.25295
H          0.80688        0.84076        0.25143
H          2.72028        1.84141       -0.88592
H          5.03368        0.28060       -0.16384
H          4.89543        2.03061       -2.54701
H          4.98169        0.24555       -2.55363
H          7.13986        2.10401       -1.31870
