17

C          1.71680       -0.91136       -0.09087
N          2.38926        0.39894       -0.20917
C          2.99338        0.01546       -1.49147
C          4.47121       -0.41649       -1.49818
C          4.48110       -1.38592       -0.31261
C          3.69724       -2.16729       -1.36499
O          4.66313       -1.62019       -2.36101
C          2.38272       -1.38222       -1.38197
H          0.62600       -0.83223       -0.16643
H          1.93989       -1.48150        0.81593
H          3.03025        0.64110        0.54408
H          2.67209        0.61362       -2.34854
H          5.26571        0.32661       -1.56785
H          4.07754       -1.14383        0.66904
H          5.47653       -1.80764       -0.10898
H          3.68484       -3.25482       -1.29228
H          1.69499       -1.65841       -2.18766
