21

C          0.97238       -0.07242       -0.06186
C          2.49254       -0.07352        0.00103
N          2.92532       -0.98143        1.06103
C          4.38384       -1.00822        1.18205
C          4.88203       -1.92413        2.28520
C          4.09352       -2.63657        3.11171
C          6.38009       -1.96137        2.43816
O          6.96455       -2.47407        1.25043
H          0.62600        0.58463       -0.86575
H          0.53967        0.28639        0.87843
H          0.58160       -1.07729       -0.25609
H          2.84288        0.94592        0.19740
H          2.89355       -0.39349       -0.96763
H          2.60718       -1.92256        0.83681
H          4.75088        0.00484        1.38896
H          4.81763       -1.33555        0.22856
H          3.01000       -2.59653        3.04769
H          4.50472       -3.26284        3.89728
H          6.69681       -2.59745        3.27229
H          6.77435       -0.95701        2.61916
H          6.57095       -3.35301        1.11158
