17

C          2.84525        0.65994        1.36190
C          2.45998        0.08630        0.00612
C          3.08225        0.85429       -1.15816
C          4.59771        0.83203       -1.16254
O          5.26074        1.86285       -1.10492
N          5.14325       -0.42280       -1.28409
C          6.48185       -0.67558       -1.19286
O          6.93499       -1.81374       -1.18874
H          2.35493        0.09627        2.16189
H          2.53829        1.70712        1.44643
H          3.92554        0.60276        1.52768
H          1.36849        0.12096       -0.09355
H          2.74570       -0.97063       -0.03036
H          2.75352        1.90032       -1.13342
H          2.73437        0.43338       -2.10933
H          4.55580       -1.24138       -1.33634
H          7.11474        0.22276       -1.10706
