19

C          1.44765        0.30111        0.97177
C          2.73161       -0.17616        0.28968
O          3.73221        0.83621        0.45493
C          3.26313       -1.57344        0.73209
C          2.24845       -2.69538        0.40779
C          4.58738       -1.87620       -0.00130
C          3.53395       -1.57190        2.18942
N          3.73367       -1.56255        3.33150
H          1.19060        1.30614        0.61730
H          1.57047        0.38215        2.05656
H          0.59981       -0.35570        0.76414
H          2.53476       -0.21583       -0.78857
H          3.68332        1.18165        1.36553
H          2.02224       -3.31921        1.28114
H          2.62327       -3.36663       -0.37336
H          1.29558       -2.30506        0.03719
H          4.94528       -2.88824        0.22368
H          5.38450       -1.18292        0.29123
H          4.45916       -1.80170       -1.08694
