17

C          0.99576        0.10977       -0.10299
C          2.48595        0.16058       -0.09650
N          3.23712       -0.48024       -1.16447
C          3.30147        0.99208       -1.08684
C          2.60909        1.80400       -2.16703
O          3.18451        1.53784       -3.44619
C          4.55146        1.53880       -0.61739
C          5.59402        1.99976       -0.24353
H          0.63953       -0.55424        0.69194
H          0.59007       -0.26234       -1.04940
H          0.58042        1.10502        0.08357
H          2.88401        0.04591        0.90599
H          2.65844       -0.74159       -1.96443
H          2.69246        2.87779       -1.96482
H          1.54530        1.56957       -2.24326
H          4.12286        1.79338       -3.38651
H          6.52447        2.40304        0.08506
