16

C          1.11866       -0.12003        0.04092
N          2.57064        0.02781        0.00638
C          3.08955        0.28834        1.34838
C          4.57478        0.45150        1.27267
O          5.20430        0.58662        2.55578
C          5.51417       -0.60201        1.80719
C          6.86322       -0.65191        1.33071
N          7.95430       -0.69997        0.93543
H          0.74592       -0.30764       -0.97087
H          0.63226        0.78842        0.41361
H          0.82008       -0.96818        0.66606
H          2.79164        0.81792       -0.60041
H          2.83251       -0.54118        2.01727
H          2.65112        1.20495        1.75818
H          4.90444        1.12481        0.49212
H          5.09897       -1.53324        2.17124
