18

C          0.95715        0.05291        0.00220
C          2.46951        0.10945       -0.09884
C          2.93847        0.81863       -1.34907
O          2.21506        1.30464       -2.20858
C          4.42750        0.92321       -1.54994
N          5.22798        0.42570       -0.66679
N          6.53067        0.53488       -0.94486
C          7.52203        0.04886       -0.01393
H          0.65724       -0.46352        0.91947
H          0.52584       -0.48352       -0.84932
H          0.52616        1.05920        0.01875
H          2.86760       -0.91089       -0.10764
H          2.86929        0.64055        0.77100
H          4.73833        1.43201       -2.47875
H          6.87153        1.06148       -1.74659
H          7.06099       -0.44069        0.85110
H          8.14188        0.87100        0.35530
H          8.16840       -0.68243       -0.50729
