20

C          1.04984        0.01634        0.08947
C          2.57272        0.00323        0.08806
O          3.04161        0.30496        1.39879
C          3.12678       -1.34966       -0.36122
C          4.65544       -1.35164       -0.38556
N          5.14743       -2.62883       -0.86584
C          6.46493       -2.92486       -0.95817
N          6.94364       -4.06528       -1.29891
H          0.67776        0.98700        0.43480
H          0.64977       -0.73644        0.77766
H          0.64937       -0.17586       -0.91045
H          2.93647        0.79265       -0.57870
H          2.61091       -0.30148        2.02656
H          2.73955       -1.59746       -1.35752
H          2.78504       -2.13759        0.32249
H          5.05203       -1.16621        0.61891
H          5.01931       -0.55429       -1.04372
H          4.47535       -3.37309       -0.99949
H          7.14041       -2.08682       -0.71248
H          6.18015       -4.71359       -1.49706
