17

C          1.22451       -0.01512       -0.03359
N          2.68185       -0.01767        0.03581
C          3.33708       -0.73792       -1.04780
C          3.29687        0.77267       -1.02859
C          4.50274        1.52410       -0.66681
C          4.58675        2.39760        0.34853
C          5.84176        3.11233        0.64075
O          5.91759        3.92576        1.55197
H          0.82816       -0.68649        0.73476
H          0.81686       -0.33688       -0.99903
H          0.84031        0.98868        0.17929
H          2.72592       -1.26349       -1.77157
H          4.25803       -1.24421       -0.78379
H          2.64590        1.26497       -1.74507
H          5.37327        1.34385       -1.29316
H          3.74766        2.60562        1.00264
H          6.70182        2.87813       -0.00946
