17

C         -0.63893        1.32607        0.97951
N          0.56754        1.84972        0.29256
C          0.61862        0.59272       -0.51539
C          1.53163       -0.47416        0.08750
C          0.76438       -1.72480        0.37564
C         -0.56504       -1.84500        0.30012
O         -1.46121       -0.87334       -0.04391
C         -0.90196        0.43789       -0.25677
H         -1.40269        2.07931        1.19001
H         -0.42197        0.77900        1.90505
H          1.36560        2.02130        0.90141
H          0.86131        0.77363       -1.57028
H          2.00778       -0.13677        1.01577
H          2.33905       -0.70397       -0.61682
H          1.34619       -2.59221        0.67795
H         -1.08540       -2.77171        0.51346
H         -1.50400        0.96604       -1.01062
