19

C          1.05945        0.06968       -0.04102
C          2.57783        0.06508       -0.03151
C          3.13182       -0.34847        1.32516
O          4.55856       -0.32936        1.26033
N          5.05913       -0.71166        2.51478
C          6.35066       -0.69878        2.47244
C          7.15781       -1.05898        3.65438
C          8.49325       -1.04116        3.59623
H          0.68628        0.36958       -1.02513
H          0.66481        0.77186        0.70040
H          0.66289       -0.92566        0.18385
H          2.95498        1.06034       -0.29556
H          2.95311       -0.61503       -0.80548
H          2.79560       -1.35983        1.58205
H          2.79635        0.34808        2.10242
H          6.90411       -0.42007        1.55791
H          6.61878       -1.33315        4.55383
H          9.03393       -0.76674        2.69620
H          9.08121       -1.30721        4.46959
