14

C          1.19932        0.07875        0.11127
C          2.53538        0.05271        0.07564
C          3.32880        0.76082        1.09977
N          4.62236        0.74275        1.07435
N          5.16230        1.47243        2.12948
C          6.45227        1.43854        2.07774
C          7.24198        2.15931        3.11902
O          8.46192        2.13653        3.08184
H          0.62283       -0.44474       -0.64574
H          0.64645        0.61076        0.87892
H          3.08503       -0.47938       -0.69218
H          2.76401        1.30128        1.88076
H          7.04222        0.91002        1.31091
H          6.64693        2.68403        3.88225
