16

C          1.46425       -1.05519        0.55204
C          2.24410       -0.07839        0.06515
C          3.12270        0.83889        0.87624
C          2.70725        2.30176        0.67280
N          3.82546        3.17016        1.01944
N          5.04197        2.87502        0.50594
C          5.29757        1.62866        0.26840
O          4.46280        0.57317        0.41637
H          0.88770       -1.68006       -0.12465
H          1.39897       -1.26483        1.61234
H          2.28413        0.06350       -1.01331
H          3.08904        0.57815        1.94049
H          1.84379        2.53871        1.30471
H          2.41634        2.49370       -0.36663
H          3.59322        4.14922        0.83474
H          6.27169        1.29600       -0.11673
