14

C          1.11107       -0.02110        0.14868
C          2.59814       -0.00050        0.11492
C          3.37981        1.08571        0.00635
C          4.75766        0.54887       -0.07058
O          5.77912        1.20785        0.01538
N          4.62912       -0.83337       -0.17126
O          5.71230       -1.62513        0.23398
N          3.33246       -1.17592        0.16206
H          0.69268        0.99050        0.11995
H          0.75253       -0.50801        1.06241
H          0.71912       -0.57173       -0.71211
H          3.12532        2.12730       -0.04030
H          6.39454       -0.94659        0.40641
H          2.95520       -1.93764       -0.39748
