18

C          2.35522       -1.35914        0.34738
C          2.54262        0.13726        0.16156
N          3.01353        0.77784        1.38584
C          2.08900        1.33656        2.25892
O          0.86836        1.26117        2.16613
N          4.38305        0.86472        1.52166
C          4.91004        0.99353        2.69259
C          6.39833        1.11354        2.82881
H          2.03253       -1.82073       -0.59103
H          1.59933       -1.56987        1.11093
H          3.28937       -1.83696        0.66071
H          1.59357        0.59054       -0.14550
H          3.27079        0.33043       -0.63450
H          2.54887        1.90018        3.08263
H          4.33737        0.99429        3.63513
H          6.88227        1.11556        1.84885
H          6.76827        0.27118        3.41899
H          6.63297        2.04156        3.35628
