19

C          0.85534        0.05176        0.07299
C          2.38125        0.10525        0.01274
C          2.88538       -0.18818       -1.40505
C          4.40733       -0.16666       -1.51189
O          4.78629       -0.47320       -2.84797
C          2.88976        1.44173        0.53149
N          2.49485        2.55347       -0.14616
O          3.64216        1.53127        1.49574
H          0.49405       -0.95385       -0.16663
H          0.39520        0.75036       -0.63422
H          0.49560        0.31115        1.07472
H          2.77033       -0.66635        0.69013
H          2.46681        0.52390       -2.12753
H          2.52193       -1.17355       -1.72571
H          4.86898       -0.89662       -0.83932
H          4.81045        0.82246       -1.27680
H          4.56077       -1.40603       -3.00879
H          1.93493        2.52961       -0.98622
H          2.86490        3.44363        0.16229
