20

C          0.83480       -0.17722       -0.12280
N          1.73715        0.57285       -0.98282
C          2.92139        1.15367       -0.28225
C          3.83152        0.14746        0.43281
N          5.02535        0.71670        1.06913
C          3.53153        2.33924       -1.01172
C          2.77467        2.57459        0.26246
O          3.58330        2.97604        1.38235
H          1.20544       -1.19408        0.04010
H         -0.14559       -0.25026       -0.60329
H          0.69353        0.30828        0.84768
H          2.02331       -0.00021       -1.77572
H          4.14816       -0.62297       -0.27995
H          3.25062       -0.35107        1.21657
H          5.70859        0.92380        0.33892
H          5.45830       -0.00768        1.64347
H          3.06202        2.68256       -1.92709
H          4.60399        2.48034       -1.00559
H          1.79793        3.04076        0.18166
H          4.28734        2.30666        1.54265
