18

C          0.99661       -0.26523        0.12403
C          2.45164        0.02667       -0.13843
O          2.78493        0.84009       -0.99400
N          3.29191       -0.71606        0.67055
C          4.67618       -0.72360        0.72608
C          5.46836        0.04894       -0.02954
C          5.26969       -1.67896        1.74628
N          4.39147       -1.83952        2.91239
H          0.37706        0.36672       -0.52010
H          0.75082       -0.04675        1.16653
H          0.78046       -1.31280       -0.10153
H          2.86441       -1.33283        1.36199
H          5.08296        0.74429       -0.76582
H          6.54850        0.00328        0.05751
H          6.25228       -1.33030        2.08594
H          5.40578       -2.65888        1.27524
H          4.37492       -0.94820        3.41122
H          4.83876       -2.49505        3.55363
