17

C          1.18093       -0.72499       -0.12482
C          2.54188       -0.09822        0.01852
O          2.99299        0.65048       -0.84840
C          3.28635       -0.37815        1.30545
C          4.79050       -0.28001        1.09225
N          5.52729       -0.55851        2.31019
C          5.83993       -1.83659        2.69338
O          5.52648       -2.85434        2.09420
H          0.74579       -0.44408       -1.08799
H          0.52766       -0.37178        0.67680
H          1.27341       -1.81340       -0.08643
H          3.02101       -1.38101        1.65751
H          2.94936        0.34170        2.05949
H          5.07687        0.72610        0.76813
H          5.10914       -0.98467        0.31530
H          5.81404        0.21284        2.89917
H          6.41446       -1.85504        3.63443
