17

C          1.12466       -0.04173        0.42120
C          2.62303        0.01137        0.16605
C          3.00360        0.32992       -1.28877
C          2.48428        1.68284       -1.78700
C          2.82309        1.88798       -3.20627
N          3.10105        2.00783       -4.32503
C          4.51650        0.31355       -1.39708
O          5.24423        1.04311       -0.73108
H          0.92758       -0.50922        1.39186
H          0.60720       -0.62426       -0.34683
H          0.69367        0.96371        0.44806
H          3.05444       -0.96242        0.43322
H          3.07414        0.74015        0.85097
H          2.62839       -0.47468       -1.93500
H          2.89697        2.50236       -1.18866
H          1.39372        1.72800       -1.68707
H          4.93702       -0.38613       -2.13945
