15

O          1.73290       -0.33311       -0.84125
C          2.90898        0.06319       -0.12908
C          3.73769       -1.00964        0.51371
C          4.22405       -0.34028       -0.74715
C          5.07063        0.87192       -0.73075
O          6.20465        0.92745       -1.16624
N          4.34843        1.89534       -0.17187
C          3.02287        1.51590        0.25506
H          1.09021       -0.76668       -0.25425
H          3.40005       -2.03629        0.43451
H          4.24948       -0.78558        1.44277
H          4.20909       -0.90277       -1.66999
H          4.72674        2.83102       -0.13112
H          2.29311        2.14782       -0.25811
H          2.94721        1.65887        1.33714
