12

O          1.04906        0.00673       -0.05870
C          2.41964       -0.01279       -0.05836
C          3.14061       -1.13625       -0.08241
C          4.56853       -1.22671       -0.08372
C          4.79281       -2.54052       -0.11237
O          6.01588       -3.14578       -0.12519
N          3.61970       -3.25129       -0.12836
N          2.65410       -2.42871       -0.11080
H          0.74751        0.93143       -0.03953
H          2.85853        0.97593       -0.03666
H          5.27469       -0.41877       -0.06578
H          6.69237       -2.45114       -0.11003
