18

C          1.20327        0.07769        0.06937
O          2.61829        0.15591       -0.03992
C          3.21432        0.07263       -1.28775
C          2.49782        0.03107       -2.42633
N          4.62070        0.04633       -1.25329
C          5.39840       -0.58779       -2.32497
C          5.37125        0.57729       -0.21253
N          4.99225        1.18131        0.85996
H          0.94802        0.08617        1.13350
H          0.82363       -0.85671       -0.35683
H          0.72897        0.94665       -0.39689
H          1.41643        0.05549       -2.44742
H          2.96993        0.01102       -3.40198
H          4.78444       -1.12435       -3.05434
H          6.08333       -1.32995       -1.89820
H          5.98999        0.16341       -2.85880
H          6.45807        0.46621       -0.37445
H          3.96219        1.18257        0.84468
