16

C          1.15048       -0.04492       -0.09363
C          2.66173       -0.01470       -0.07534
N          3.25387        1.20128        0.22727
C          3.31488       -1.15997       -0.34278
S          5.03828       -1.23873       -0.40476
N          5.47224       -0.13432       -1.60145
O          5.58254       -0.72243        0.83272
O          5.41826       -2.53412       -0.92137
H          0.71959        0.90125        0.25079
H          0.77101       -0.83388        0.56509
H          0.78440       -0.22524       -1.10983
H          2.63273        1.83948        0.72567
H          4.12632        1.09518        0.76072
H          2.79273       -2.08261       -0.55833
H          4.99242        0.75710       -1.45480
H          5.33714       -0.52789       -2.53045
