19

O          3.10612       -0.43922       -1.18658
C          2.49494        0.00002        0.02112
C          3.04228       -0.73954        1.20290
N          3.02894       -2.20664        1.22728
C          4.33108       -1.53221        1.13828
C          5.26428       -1.57760        2.31237
C          6.52937       -0.79468        2.09225
C          6.91552        0.25729        2.82681
H          2.79964        0.16075       -1.88713
H          1.41623       -0.16581       -0.05992
H          2.67847        1.07224        0.13729
H          2.76390       -0.26668        2.13755
H          2.77443       -2.56362        0.30130
H          4.84196       -1.66303        0.19133
H          5.54636       -2.62139        2.49515
H          4.75559       -1.23242        3.22109
H          7.17063       -1.12843        1.27863
H          6.31703        0.62767        3.65453
H          7.84679        0.77021        2.61191
