14

N          1.13776       -0.18466       -0.22623
N          2.50364       -0.13436       -0.02442
C          3.27293       -1.23641        0.18125
C          4.51278       -0.87554        0.51224
C          4.64612        0.62197        0.58553
O          5.04809        0.97850        1.88818
C          3.21790        1.06648        0.18050
O          2.79330        2.20976        0.10555
H          0.88533       -1.05923       -0.68624
H          0.89497        0.56464       -0.88052
H          2.87487       -2.23645        0.08217
H          5.32707       -1.55621        0.72433
H          5.36962        0.98775       -0.14746
H          4.28508        0.82348        2.47136
