15

N          0.93068        0.00628       -0.13585
C          2.41457       -0.05680       -0.06681
C          2.97489        1.17871       -0.72969
C          3.73810        1.18078       -1.83221
S          3.16462       -0.15108        1.66173
O          2.46099        1.16787        2.29129
O          2.59286       -1.25972        2.39858
O          4.59141        0.07691        1.62801
H          0.66183        0.03899       -1.11775
H          0.62837        0.88781        0.27683
H          2.75531       -0.97282       -0.56249
H          2.75225        2.13334       -0.25474
H          4.02178        0.26363       -2.34005
H          4.11904        2.11360       -2.23740
H          1.77051        0.85478        2.91187
