14

N          1.11336       -0.09024        0.09507
C          2.38542        0.01554       -0.01104
N          3.16466       -0.78897        0.75004
C          4.53710       -0.82233        0.67448
O          5.19760       -0.04518       -0.01571
C          5.22194       -1.82734        1.56511
C          4.47374       -3.10450        1.78143
O          3.31351       -3.13818        2.18206
H          0.66091        0.57546       -0.53970
H          2.89818        0.72065       -0.68462
H          2.66349       -1.45067        1.33916
H          5.42821       -1.37048        2.53743
H          6.18035       -2.08887        1.10226
H          5.02985       -4.03543        1.57042
