18

C          1.17921       -0.61147       -0.50699
C          2.50990       -0.07665        0.00193
C          2.96788        1.10429       -0.79968
C          2.67620        2.43769       -0.59620
C          3.25991        3.29534       -1.58346
C          3.09330        4.77546       -1.63155
C          3.99600        2.56122       -2.49343
S          3.97576        0.88528       -2.16397
H          0.86328       -1.47356        0.08862
H          1.25130       -0.92970       -1.55278
H          0.39534        0.15132       -0.44282
H          3.26015       -0.87583       -0.02128
H          2.40151        0.21745        1.05307
H          2.05545        2.78596        0.22210
H          2.49621        5.13663       -0.78802
H          2.58634        5.07030       -2.55638
H          4.06786        5.27247       -1.59556
H          4.54844        2.93033       -3.34649
