20

C          1.05472        0.01770        0.03443
C          2.54056       -0.10593       -0.00544
C          3.31633       -1.20023       -0.09525
C          4.77380       -0.82673       -0.06861
C          4.75243        0.67720       -0.32093
C          3.36415        1.14554        0.09435
C          2.86700       -2.56790       -0.18206
C          3.66092       -3.64404       -0.25134
H          0.54284       -0.94542       -0.02777
H          0.70615        0.63077       -0.80301
H          0.74186        0.49905        0.96662
H          5.35888       -1.32864       -0.84566
H          5.20925       -1.05653        0.91050
H          4.90537        0.87510       -1.39010
H          5.54637        1.20020        0.22162
H          3.00483        1.93344       -0.57479
H          3.35929        1.52253        1.12272
H          1.79331       -2.73901       -0.19001
H          4.74301       -3.57832       -0.24824
H          3.22897       -4.63812       -0.31422
