16

O          1.55512       -0.02661       -1.17485
C          2.50103        0.08491       -0.39463
C          3.14518       -1.10679        0.30019
C          4.28065       -0.77982        1.25057
N          5.48844       -0.10448        0.73958
C          4.58063        0.64716        1.61552
C          3.69267        1.70875        1.05469
N          3.15349        1.28410       -0.23345
H          3.54958       -1.72617       -0.49667
H          2.38147       -1.68008        0.83379
H          4.47377       -1.56288        1.96723
H          5.35704        0.19304       -0.23244
H          4.95557        0.87317        2.60509
H          4.24681        2.63924        0.88887
H          2.86826        1.90781        1.74726
H          2.90817        1.99545       -0.90063
