18

N          3.01245       -1.30331        0.27703
C          2.55951        0.05623        0.00544
C          3.07042        1.03700        1.05759
C          4.59670        1.11533        1.10088
C          5.08455        2.10986        2.13013
O          4.35834        2.76195        2.87748
N          6.45525        2.23041        2.15889
O          6.98155        3.06205        3.17287
H          2.60537       -1.93728       -0.41094
H          2.65199       -1.60671        1.18210
H          1.46428        0.07522       -0.00848
H          2.90609        0.35943       -0.98822
H          2.68312        0.75881        2.04643
H          2.66242        2.03186        0.83709
H          4.98276        1.41789        0.12030
H          5.02493        0.13835        1.35356
H          7.08689        1.55253        1.74608
H          6.16797        3.39896        3.60980
