13

O          1.08437       -0.08870        0.00449
N          2.46879       -0.06981        0.02120
C          3.25015        1.04803        0.02666
C          4.56563        0.62651        0.03867
C          4.55129       -0.79094        0.04007
C          3.23452       -1.19389        0.02965
C          5.67483       -1.66625        0.04885
C          6.62102       -2.40475        0.05565
H          0.88806        0.85975        0.04363
H          2.82718        2.04221        0.02064
H          5.43718        1.26853        0.04469
H          2.78061       -2.17451        0.02631
H          7.45863       -3.06193        0.06131
