17

O          1.10003       -0.04312       -0.29369
C          2.29510       -0.02505       -0.00143
C          3.13314       -1.29427        0.10037
N          4.31311       -1.07769        0.97124
C          4.90395        0.28063        0.94346
C          3.88326        1.26400        1.58595
C          3.18325        1.24431        0.19127
C          4.62366        1.03178       -0.38394
H          3.45737       -1.57168       -0.90790
H          2.52167       -2.09901        0.51783
H          4.98167       -1.83102        0.80952
H          5.92138        0.33557        1.33764
H          4.30679        2.23930        1.85662
H          3.30054        0.89541        2.43572
H          2.69108        2.17360       -0.10590
H          5.19485        1.96147       -0.50146
H          4.71487        0.46221       -1.31331
