15

C          1.08486        0.09446       -0.02430
C          2.55383       -0.05517       -0.02805
C          3.57570        0.82550        0.00784
C          4.09983        2.19399        0.06409
C          5.51577        1.54338        0.05153
C          4.81146        0.24755       -0.00839
N          4.93684       -1.05463       -0.05275
S          3.32709       -1.62952       -0.08437
H          0.80043        1.15176       -0.01748
H          0.64867       -0.37610        0.86274
H          0.64309       -0.36566       -0.91402
H          3.78380        2.74859        0.95454
H          3.80083        2.81292       -0.78929
H          6.15286        1.65004        0.93661
H          6.17000        1.72228       -0.80888
