17

C          1.05700        0.03441        0.00593
C          2.58500        0.00582        0.04217
N          3.04992        1.10869        0.90361
C          3.16071       -1.30640        0.57299
S          2.79539       -2.69824       -0.48263
O          3.60481       -3.81733        0.35156
O          1.40502       -3.07070       -0.35002
O          3.44078       -2.53528       -1.76314
H          0.68882        1.02716       -0.27785
H          0.62649       -0.21885        0.98093
H          0.66269       -0.66511       -0.73644
H          2.96257        0.18910       -0.96998
H          2.67804        1.00259        1.84816
H          2.67287        1.99360        0.55965
H          2.77163       -1.54221        1.56887
H          4.25422       -1.24407        0.62817
H          2.95339       -4.46938        0.68984
