22

C          1.31410       -0.37261        0.05545
C          2.82185       -0.12767        0.05072
C          3.27006        1.13559        0.82953
N          2.51649        1.42523        2.05826
C          4.72592        0.82960        1.20431
C          4.94517       -0.63719        0.85237
N          3.59764       -1.19932        0.69902
C          3.63389       -2.43966       -0.06834
H          0.78231        0.50538       -0.32640
H          0.93706       -0.58860        1.06105
H          1.04833       -1.22168       -0.58241
H          3.14558       -0.01151       -0.99429
H          3.22081        2.01836        0.18255
H          2.50634        0.56855        2.61769
H          1.54232        1.60646        1.82375
H          4.92827        1.00458        2.26831
H          5.41345        1.46957        0.63881
H          5.51211       -1.15650        1.63209
H          5.51839       -0.69703       -0.08252
H          4.23700       -3.19146        0.45388
H          4.05773       -2.29908       -1.07048
H          2.63244       -2.86643       -0.17877
