19

C          1.05362       -0.06017       -0.43432
O          2.45435       -0.00292       -0.22468
C          2.87452       -0.74609        0.92841
O          2.49666       -2.11886        0.81803
C          2.62405       -2.82592        2.04410
C          4.38322       -0.64875        1.01763
C          5.22979       -1.27687       -0.06281
N          5.16642        0.17416        0.08440
H          0.78266        0.72459       -1.14828
H          0.50018        0.11143        0.49405
H          0.77607       -1.02518       -0.86854
H          2.41882       -0.28911        1.81401
H          2.45649       -3.88675        1.84671
H          1.87759       -2.47934        2.76276
H          3.62775       -2.71966        2.47080
H          4.74901       -0.67679        2.03539
H          4.73791       -1.69666       -0.93123
H          6.15331       -1.75398        0.22980
H          4.51257        0.57238       -0.60046
