15

O          2.36358       -0.90135        0.42083
C          2.35925        0.28321        0.11485
N          3.03918        1.27414        0.76209
C          3.60889        1.27184        2.12298
C          2.20186        1.91664        2.45797
C          2.58149        2.63725        1.09489
C          3.86721        3.33509        1.35702
C          4.56181        2.41525        2.05105
H          1.77215        0.67155       -0.73377
H          3.91396        0.32283        2.55703
H          2.15156        2.54577        3.35201
H          1.33278        1.24755        2.44534
H          1.81591        3.09416        0.47329
H          4.16350        4.32624        1.05902
H          5.56175        2.47369        2.45104
