16

C          1.29018        0.05336        0.10362
O          2.71774        0.03627        0.16769
C          3.20498       -0.26830        1.39780
O          2.51796       -0.51054        2.38036
N          4.56770       -0.26118        1.36638
C          5.34281       -0.52721        2.44674
N          6.61688       -0.49349        2.31315
C          7.30799       -0.80116        3.56489
H          0.99807        0.30626       -0.91925
H          0.88544        0.81509        0.77771
H          0.88375       -0.93387        0.34576
H          5.02734       -0.04636        0.49655
H          4.80568       -0.75778        3.38292
H          8.38868       -0.75875        3.39897
H          7.06343       -1.80964        3.91646
H          7.06108       -0.07234        4.34482
