14

O          1.05685        0.12244       -0.07368
C          2.40608        0.12246       -0.06843
C          3.14123        1.28443       -0.06344
S          4.82302        0.96698       -0.05754
C          4.55677       -0.72611       -0.06152
C          3.21553       -1.05439       -0.06743
C          2.69870       -2.39280       -0.07169
C          3.40844       -3.53014       -0.07145
H          0.71452        1.03236       -0.07350
H          2.79107        2.30623       -0.06285
H          5.41123       -1.38751       -0.05938
H          1.61256       -2.48594       -0.07606
H          4.49216       -3.54735       -0.06736
H          2.90264       -4.49062       -0.07534
