18

O          0.90001       -0.01930       -0.01143
C          2.32592        0.02792       -0.09019
C          2.88068       -1.35717       -0.43107
C          2.48981       -1.78677       -1.84254
C          2.82130       -0.69517       -2.83603
N          3.29592       -0.96280       -4.00740
N          2.58257        0.60099       -2.49518
C          2.76559        1.07305       -1.13130
H          0.65830       -0.71136        0.62681
H          2.68635        0.33830        0.89690
H          2.50505       -2.10188        0.28029
H          3.97402       -1.33858       -0.34724
H          1.41213       -1.97936       -1.90232
H          3.00904       -2.71313       -2.10981
H          3.40867       -1.97384       -4.12705
H          2.89207        1.24554       -3.21582
H          2.19862        2.00076       -1.00178
H          3.82860        1.30116       -0.98985
