17

C          1.12853       -0.00988        0.42885
O          2.41440        0.05046       -0.17334
C          2.94098       -1.15878       -0.46520
C          4.16521       -1.26756       -1.07648
N          4.43590       -2.60040       -1.24288
C          3.39708       -3.34978       -0.74262
C          3.40084       -4.83263       -0.77687
C          2.45138       -2.46891       -0.25052
H          0.80206        1.01501        0.62957
H          1.16262       -0.54285        1.38539
H          0.39785       -0.46812       -0.24671
H          4.86402       -0.51175       -1.40692
H          5.27464       -2.97277       -1.66927
H          4.29582       -5.22444       -1.27055
H          2.52475       -5.20166       -1.31976
H          3.36960       -5.23542        0.24052
H          1.51666       -2.75753        0.21057
