16

N          1.82476        0.61765        0.89709
C          2.20521       -0.11557       -0.09419
N          3.04616       -1.20584       -0.09651
C          2.88434       -2.15376        1.01232
C          3.40466       -3.54155        0.90452
O          4.82099       -3.46942        1.15726
C          5.25129       -2.12303        0.87767
C          4.04789       -1.25858        0.98225
H          1.19922        1.35276        0.55171
H          1.84288        0.10357       -1.11381
H          2.07993       -1.98854        1.71101
H          3.24811       -3.95797       -0.09661
H          2.95427       -4.21141        1.64353
H          5.68854       -2.09388       -0.12570
H          6.01767       -1.84951        1.60857
H          4.11473       -0.41855        1.65506
