15

C          1.02257        0.10402        0.04826
N          2.49991        0.01554        0.05037
O          3.16312        1.21321        0.52499
S          3.08128       -1.31244        1.01485
O          2.69493       -1.04633        2.38687
O          2.62070       -2.52439        0.36191
C          4.81597       -1.25023        0.91495
C          5.43680       -1.39888       -0.26311
H          0.71851        0.91895       -0.61614
H          0.64456        0.31983        1.05162
H          0.57909       -0.81986       -0.33037
H          3.08629        1.84822       -0.21120
H          5.34904       -1.09537        1.84149
H          4.88349       -1.56310       -1.18269
H          6.52021       -1.36712       -0.32318
