19

O          2.70694        0.25077        1.43556
C          2.34851        0.01238        0.06670
C          2.79928        1.19413       -0.81491
C          2.23513        2.58310       -0.41841
C          3.68323        3.07402       -0.45101
N          4.15279        1.67845       -0.42134
C          2.80637        0.85682       -2.27266
C          1.71605        0.98276       -3.03822
H          2.40529       -0.52580        1.93845
H          1.26307       -0.12130        0.01339
H          2.83685       -0.91907       -0.24177
H          1.77864        2.62514        0.57772
H          1.56182        3.08432       -1.11986
H          3.98997        3.67711        0.40877
H          3.95715        3.60792       -1.36722
H          4.36382        1.36749        0.53409
H          3.72925        0.47525       -2.69905
H          0.77215        1.35538       -2.65431
H          1.75366        0.72440       -4.09359
