12

N          1.03126       -0.05674       -0.15481
C          2.36670        0.05043       -0.11600
N          2.99010        1.22251       -0.09540
S          4.62614        0.96331       -0.06847
C          4.53246       -0.73556       -0.07563
C          5.71825       -1.54476       -0.06263
O          5.72086       -2.77358       -0.06064
C          3.20378       -1.10337       -0.09757
H          0.46929        0.78212       -0.06251
H          0.53534       -0.93052       -0.03656
H          6.68088       -1.00366       -0.05541
H          2.86369       -2.13049       -0.10829
