17

C          0.87614       -0.03255        0.05907
C          2.35225        0.18248        0.02290
C          3.02670        1.34855        0.06621
N          2.43471        2.59937        0.16884
C          4.55152        1.31479        0.00408
N          5.10906        0.00265        0.32291
N          4.47994       -1.13227       -0.05939
C          3.18939       -1.04079       -0.14856
H          0.30938        0.90143        0.09433
H          0.60017       -0.62018        0.94066
H          0.54948       -0.57767       -0.83309
H          1.46702        2.63999       -0.13542
H          2.99484        3.35801       -0.21214
H          4.96355        2.03886        0.71639
H          4.86756        1.61872       -1.00085
H          6.10327       -0.03468        0.09980
H          2.62932       -1.95871       -0.39708
