16

N          1.44715       -0.17755        1.11331
C          2.42912       -0.22022        0.27734
N          3.45371       -1.13040        0.15928
C          3.16123       -2.50125        0.59294
C          4.12329       -1.65351        1.36862
C          3.85255       -1.22155        2.80077
C          3.79796       -2.20512        3.94769
O          4.96204       -1.41474        3.70072
H          0.85819        0.63456        0.89323
H          2.50521        0.54969       -0.51025
H          3.55521       -3.25060       -0.07681
H          2.16778       -2.66595        0.98665
H          5.17578       -1.83013        1.15616
H          3.29485       -0.29965        2.93561
H          3.85315       -3.26332        3.72531
H          3.19281       -1.95494        4.80950
