17

C          1.03485        0.34393       -0.09657
O          2.42305        0.00281       -0.03676
C          2.60812       -1.33305        0.08528
O          1.72829       -2.17669        0.12258
C          4.05961       -1.64271        0.15988
C          4.39862       -2.94161        0.25061
C          5.74235       -3.58520        0.34221
N          6.86410       -2.66860        0.41105
H          0.94435        1.42711       -0.20688
H          0.53021        0.04756        0.82981
H          0.55778       -0.13219       -0.96040
H          4.77293       -0.82973        0.14209
H          3.59460       -3.67612        0.26964
H          5.75499       -4.22471        1.23337
H          5.86466       -4.24333       -0.52546
H          6.85707       -2.06242       -0.40475
H          7.72263       -3.21715        0.33167
