18

C          0.91467        0.21384       -0.38862
C          2.36266        0.10668        0.02522
C          3.23245       -0.70270       -0.94033
N          3.40344        0.73570       -0.81644
C          2.59801       -0.06268        1.51853
N          4.00656       -0.20988        1.87920
C          2.10572        1.16482        2.26773
C          1.68344        2.21777        2.91040
H          0.80444        0.30653       -1.47534
H          0.43355        1.08514        0.06361
H          0.37109       -0.68672       -0.08114
H          2.80442       -1.06979       -1.86647
H          4.05137       -1.31039       -0.57619
H          2.98098        1.22899       -1.60452
H          2.04825       -0.93866        1.88164
H          4.50108        0.53278        1.37469
H          4.36575       -1.07448        1.48563
H          1.35026        3.07951        3.44021
