20

C          1.01874       -0.40214        0.12161
O          2.35533        0.05101       -0.07012
C          3.07596       -0.80063       -0.86505
C          4.41910       -0.86374       -0.85113
C          5.24063        0.01482        0.05609
N          6.02896       -0.78579        0.99089
C          5.20469       -1.77122       -1.76829
N          4.44578       -2.93020       -2.23970
H          0.52406        0.28723        0.81168
H          1.00717       -1.40266        0.56754
H          0.46487       -0.39753       -0.82346
H          2.47642       -1.39360       -1.54664
H          4.61409        0.70126        0.63567
H          5.91283        0.63658       -0.54588
H          5.38932       -1.40297        1.49101
H          6.41266       -0.16267        1.70026
H          6.10406       -2.14667       -1.26938
H          5.53698       -1.18829       -2.63483
H          4.28093       -3.53720       -1.43727
H          5.04108       -3.46737       -2.86915
