14

N          1.50419       -0.12431       -1.02783
C          2.40343        0.09513        0.10633
C          2.94890        1.50016        0.05446
N          4.21123        1.78193       -0.05251
C          4.28663        3.15097       -0.04584
O          5.28509        3.84502       -0.11136
C          2.92232        3.69376        0.06898
C          2.07501        2.66806        0.13002
H          1.13330       -1.07333       -0.97078
H          2.05504       -0.10313       -1.88867
H          3.22884       -0.62296        0.07917
H          1.85838       -0.03427        1.04644
H          2.71162        4.74717        0.08642
H          1.00340        2.65837        0.20145
