16

C          1.05018       -0.11063        0.10720
C          2.56430       -0.17046        0.05328
N          3.19045        0.97737        0.80361
S          4.48801        0.00705        1.31809
O          4.65410        0.23393        2.73299
O          5.53974        0.06205        0.33150
C          3.25100       -1.25328        0.94401
N          3.61283       -2.42421        0.09957
H          0.67570        0.74913       -0.45841
H          0.68178       -0.02908        1.13502
H          0.61649       -1.01382       -0.33487
H          2.91495       -0.15655       -0.98906
H          2.68705        1.32483        1.62358
H          2.69227       -1.52653        1.84607
H          4.33614       -2.20107       -0.59075
H          2.83630       -2.83630       -0.41308
