16

O          1.52209        0.17504        0.79104
C          2.60830       -0.04417        0.26349
C          3.12075        0.81532       -0.84145
C          2.20890        1.47974       -1.83521
N          2.75237        2.24598       -0.71841
N          3.51794       -1.02007        0.64559
C          3.18991       -2.01442        1.61908
C          4.18766       -0.94058        1.90311
H          4.14073        0.63396       -1.15529
H          1.14815        1.26631       -1.80696
H          2.61310        1.72416       -2.80910
H          2.03980        2.34109        0.01907
H          3.54129       -3.00652        1.37381
H          2.21031       -1.94138        2.07311
H          5.24403       -1.15841        1.83170
H          3.90460       -0.09994        2.52310
