17

N          0.75266       -0.27922       -0.14892
C          2.17477        0.05284       -0.07113
C          2.33010        1.40454        0.56768
C          3.41659        1.68953        1.29661
C          4.48596        0.66184        1.48178
O          3.97187       -0.67037        1.55429
C          2.97745       -1.03105        0.65156
C          2.70465       -2.34065        0.54447
H          0.25733        0.46376       -0.63366
H          0.38534       -0.31712        0.79929
H          2.55762        0.12721       -1.09692
H          1.58569        2.17362        0.38659
H          3.56231        2.67574        1.72407
H          5.01034        0.85005        2.42392
H          5.22467        0.72678        0.67405
H          3.26728       -3.07235        1.11397
H          1.91014       -2.70259       -0.09830
