13

C          0.96030       -0.08531        0.07990
O          2.38306       -0.06189        0.05577
N          2.86580        0.29418        1.37226
S          4.55781        0.36631        1.23453
O          5.11121       -0.93623        0.95886
O          5.01954        1.61827        0.68975
C          5.19730        0.54725        2.89554
C          5.62012        0.63026        4.01771
H          0.60512       -0.41993       -0.89839
H          0.56718        0.91593        0.27788
H          0.60327       -0.78994        0.83816
H          2.62434       -0.43356        2.04849
H          6.00658        0.68926        5.00819
