17

C          1.04560       -0.42207       -0.01566
C          2.51826       -0.04296       -0.06667
C          2.97085        0.62185        1.19474
N          2.89676        1.95040        1.28118
S          3.42674        2.42629        2.77542
C          3.77027        0.85611        3.35509
C          4.29247        0.62133        4.72347
C          3.47793       -0.04899        2.35469
H          0.74292       -0.90188       -0.95128
H          0.41507        0.46127        0.13439
H          0.84523       -1.11910        0.80532
H          2.69398        0.61922       -0.92329
H          3.11820       -0.94432       -0.24058
H          4.32959        1.53933        5.31908
H          5.30470        0.20667        4.67768
H          3.65434       -0.09398        5.25331
H          3.60281       -1.12004        2.44562
