14

C          3.08014       -1.08273        0.27835
O          2.44766        0.13749       -0.08840
C          3.09046        1.20592        0.42520
C          2.61955        2.48451        0.22947
N          3.51915        3.26943        0.87738
O          3.47669        4.65129        0.98252
C          4.47520        2.47375        1.43171
N          4.24143        1.20294        1.17347
H          2.55055       -1.89949       -0.22043
H          3.01303       -1.24701        1.35947
H          4.12407       -1.10955       -0.05324
H          1.75869        2.86524       -0.29498
H          2.82611        4.86484        0.29483
H          5.30125        2.87053        2.00337
