16

N          1.09180       -0.07486        0.10394
C          2.55503       -0.01778        0.04953
C          3.07664        0.90700       -1.06665
O          4.50248        0.80152       -1.15306
N          4.95715        1.67394       -2.15388
C          6.24669        1.69662       -2.12026
C          3.06169        0.45451        1.40255
C          3.49631        0.85963        2.56316
H          0.72953       -0.32499       -0.81382
H          0.73240        0.85593        0.31140
H          2.94364       -1.03057       -0.11055
H          2.80039        1.95120       -0.87275
H          2.65087        0.60253       -2.03079
H          6.80279        2.32570       -2.83255
H          6.83931        1.11183       -1.39714
H          3.84829        1.18677        3.51387
