18

O          2.65025       -2.10141        0.73840
C          2.29145       -0.84130        0.19280
C          2.88337       -0.68996       -1.20126
C          4.41638       -0.76590       -1.22837
C          4.95130       -0.63956       -2.67625
N          5.32919        0.79887       -2.86453
C          5.35958        1.25454       -1.65042
N          5.02047        0.41602       -0.63900
H          2.17543       -2.19518        1.58325
H          2.64037       -0.05238        0.86596
H          1.19952       -0.78900        0.13764
H          2.53531        0.25591       -1.63419
H          2.49206       -1.50018       -1.82981
H          4.78076       -1.68463       -0.75902
H          4.21526       -0.94012       -3.42826
H          5.85352       -1.24799       -2.81119
H          5.60657        2.29048       -1.37099
H          4.66318        0.78877        0.22947
