13

O          1.07523       -0.23047        0.38378
S          2.42236       -0.04126       -0.09734
O          2.80558       -0.02403       -1.48552
C          3.33109        1.09400        0.88882
C          4.33040       -0.03070        1.20004
N          3.40534       -1.11902        0.75328
C          5.53933       -0.04777        0.40463
C          6.52265       -0.06831       -0.28569
H          2.76094        1.44480        1.75522
H          3.71512        1.95673        0.33760
H          4.54440       -0.11943        2.27166
H          2.86186       -1.56911        1.49149
H          7.37499       -0.10133       -0.92398
