18

C          1.13588       -0.07836        0.00746
C          2.65100       -0.07942       -0.04299
C          3.35991        1.00334        0.80751
C          4.36238       -0.11947        1.14100
N          3.26532       -1.08524        0.87935
C          3.76164       -2.25731        0.14056
C          2.62596       -3.22816       -0.13886
N          1.68382       -4.03357       -0.37066
H          0.73970        0.79799       -0.51588
H          0.75630       -0.05467        1.03482
H          0.72500       -0.96520       -0.48545
H          3.02421       -0.10504       -1.07643
H          2.78760        1.36060        1.67220
H          3.76158        1.86033        0.26158
H          4.73372       -0.11946        2.16943
H          5.21557       -0.16687        0.45293
H          4.49927       -2.78350        0.75846
H          4.25431       -1.99338       -0.80341
