14

C          0.98936       -0.04226       -0.01646
C          2.46829       -0.07644       -0.01416
C          3.35012        0.98541       -0.00779
N          4.60333        0.44341       -0.00799
N          4.60713       -0.89924       -0.01425
C          3.30986       -1.21345       -0.01812
C          2.93704       -2.58850       -0.02559
C          2.59972       -3.74131       -0.03230
H          0.61421        0.98574       -0.01668
H          0.59293       -0.54732        0.87066
H          0.59550       -0.54664       -0.90512
H          3.19991        2.05509       -0.00324
H          5.49636        0.92604       -0.00418
H          2.29938       -4.76294       -0.03836
