19

O          3.04496        2.01748       -1.73865
C          4.05679        2.01828       -1.05353
N          4.77806        0.91355       -0.68773
C          4.42240       -0.41907       -1.13087
C          5.02312       -0.77404       -2.49295
C          6.52820       -0.81840       -2.47007
C          7.27058       -1.14186       -3.74161
C          7.33974        0.24447       -3.16663
H          4.49531        2.94592       -0.64991
H          5.65184        1.04585       -0.19560
H          3.33038       -0.49352       -1.18473
H          4.77190       -1.11542       -0.36141
H          4.67042       -0.06757       -3.25404
H          4.65620       -1.76603       -2.78212
H          6.92238       -1.25756       -1.56022
H          6.70181       -1.28687       -4.65344
H          8.15289       -1.76809       -3.66821
H          6.82198        1.03488       -3.69934
H          8.27379        0.55610       -2.71369
