20

C          1.05055       -0.15715        0.25101
C          2.54984       -0.07878       -0.01212
C          2.88006       -0.02032       -1.50140
C          3.26000        0.99153        0.83790
C          4.16281       -0.11922        1.36302
N          3.37940       -1.07085        0.63436
C          2.85534       -2.15783        1.27289
N          3.34305       -2.81958        2.26546
H          0.55182        0.74583       -0.12006
H          0.82057       -0.23855        1.31915
H          0.59566       -1.01105       -0.26327
H          2.41224        0.85368       -1.96771
H          2.51671       -0.91380       -2.02110
H          3.95973        0.05184       -1.67825
H          2.64401        1.45311        1.61840
H          3.77375        1.78447        0.28621
H          4.15825       -0.23111        2.45008
H          5.19231       -0.08881        0.99235
H          1.91753       -2.52585        0.82588
H          4.23759       -2.41056        2.54298
