15

O          1.09308       -0.08826        0.47334
C          2.43454        0.05594        0.03924
C          2.83726       -1.15905       -0.76107
N          1.93324       -1.76192       -1.73613
C          2.92463       -0.80384       -2.21567
C          2.61463        0.65520       -2.39351
C          2.56042        1.19929       -0.97656
O          2.58326        2.39383       -0.69934
H          0.99842       -0.99203        0.81993
H          3.10085        0.22411        0.89017
H          3.60566       -1.77625       -0.31924
H          1.00068       -1.34663       -1.67869
H          3.74275       -1.17997       -2.81365
H          1.64249        0.80103       -2.87316
H          3.40253        1.16245       -2.95564
