14

O          1.11584        0.58536        0.50092
C          2.23071        0.18559        0.20023
C          2.79113       -1.14786        0.53705
C          3.88807       -1.54132       -0.38247
C          3.85446       -1.36125       -1.88448
N          4.72968       -0.54902       -1.02729
N          4.28129        0.72912       -1.05219
C          3.16923        1.10321       -0.50110
H          1.99028       -1.89458        0.50756
H          3.17689       -1.09511        1.56165
H          4.40030       -2.42788       -0.01984
H          3.00851       -0.89102       -2.36639
H          4.37449       -2.08471       -2.50144
H          2.84917        2.15503       -0.54372
