18

C          3.07092       -0.65890        0.83333
O          2.19211        0.26984        0.20864
C          2.82368        0.99313       -0.86515
C          1.95836        1.97268       -1.60230
C          2.98334        2.47514       -0.62829
N          4.19344        3.15828       -1.06768
C          5.32468        3.13504       -0.30600
N          5.54848        2.48525        0.77886
H          2.65299       -0.93369        1.80500
H          4.06131       -0.22152        0.99006
H          3.15637       -1.55618        0.21367
H          3.57972        0.48552       -1.45788
H          0.91398        2.03184       -1.31992
H          2.14070        2.10559       -2.66102
H          2.58810        2.88300        0.30007
H          4.12934        3.88006       -1.77940
H          6.12480        3.76491       -0.72817
H          4.70922        1.95867        1.03528
