21

C          0.95687       -0.08717        0.02451
C          2.44323        0.00755       -0.01050
C          3.22912       -0.74055       -1.05909
N          3.07927        0.71376       -1.12215
C          4.30706        1.42919       -0.74834
C          4.08738        2.92401       -0.72830
C          3.72725        3.58481       -2.03034
C          4.23931        3.66073        0.38712
H          0.64748       -0.83069        0.76607
H          0.53435       -0.38024       -0.94243
H          0.52241        0.87617        0.31009
H          2.86553        0.11604        0.98125
H          2.69298       -1.29498       -1.82008
H          4.19584       -1.14882       -0.79094
H          5.08550        1.21237       -1.49281
H          4.71387        1.09430        0.21554
H          3.65018        2.85893       -2.84740
H          4.49539        4.31186       -2.31551
H          2.76441        4.09852       -1.95081
H          4.50762        3.20840        1.33598
H          4.09194        4.73635        0.37400
