16

C          1.03225        0.27287       -0.07661
O          2.44441        0.12685        0.02947
C          2.86224       -0.30832        1.33792
C          2.35558       -1.70310        1.66698
N          1.93525       -2.86018        1.93996
C          4.36306       -0.46417        1.37037
C          5.11861       -1.26307        0.33086
N          5.20438        0.19451        0.35650
H          0.80821        0.72495       -1.04695
H          0.64666        0.92602        0.71185
H          0.53737       -0.70049       -0.03685
H          2.53999        0.41899        2.09123
H          4.76005       -0.45281        2.37932
H          4.58289       -1.70359       -0.50063
H          6.00664       -1.79810        0.64763
H          4.60311        0.59277       -0.37611
