19

N          0.64274       -0.02598        0.04624
C          2.08571        0.01546        0.22044
C          3.00052       -0.95590       -0.47022
C          2.64074       -1.76082       -1.69518
C          2.97711       -0.82124       -2.86212
O          4.37036       -0.91420       -3.17424
C          2.65286        0.58184       -2.32911
C          3.00639        0.49906       -0.86488
H          0.22412       -0.71903        0.66761
H          0.36458       -0.28958       -0.89481
H          2.37896        0.29953        1.23149
H          3.85726       -1.34472        0.06429
H          1.57559       -2.01346       -1.69471
H          3.22210       -2.68724       -1.73758
H          2.42258       -1.06524       -3.77206
H          4.86939       -0.67298       -2.37434
H          1.59054        0.81147       -2.46009
H          3.24522        1.35343       -2.83065
H          3.86215        1.10397       -0.59424
