16

C          2.34163       -1.40602        0.04210
O          2.24430        0.01276        0.03285
C          2.78461        0.57765        1.22468
C          2.69471        2.10504        1.17784
N          2.45580        2.41639        2.56709
C          1.91843        1.32657        3.16925
N          1.32770        1.26824        4.29860
O          2.03635        0.21773        2.39582
H          1.95040       -1.78344       -0.90658
H          1.74531       -1.83174        0.85458
H          3.38610       -1.71956        0.13571
H          3.82423        0.25374        1.36022
H          1.85514        2.44226        0.55965
H          3.61310        2.56137        0.79827
H          2.03014        3.30767        2.78068
H          1.34607        2.19124        4.73264
