14

C          1.15098        0.08549        0.42754
C          2.41163       -0.02851        0.01042
N          2.94956       -1.20902       -0.42936
C          4.28069       -1.04502       -0.80744
S          5.29638       -2.26718       -1.26049
N          4.61940        0.31805       -0.65987
C          4.01319        1.35599       -1.42925
C          3.45819        1.00192       -0.09158
H          0.47508       -0.76348        0.44307
H          0.75798        1.04240        0.75258
H          2.48329       -2.10495       -0.42811
H          3.50782        1.03055       -2.32877
H          4.62933        2.23908       -1.52225
H          3.70987        1.57346        0.79168
