18

N          2.84748        0.67503        1.18496
C          2.31131        0.00638        0.00687
C          2.88602        0.58149       -1.28520
C          4.41604        0.54044       -1.38533
C          5.03101       -0.83963       -1.36518
C          5.19255       -1.03801       -2.81979
N          5.07054        0.01797       -3.54654
O          4.79428        1.09092       -2.66384
H          2.42698        0.27267        2.02317
H          2.56290        1.65576        1.17882
H          1.22119        0.11560       -0.00327
H          2.51992       -1.06538        0.07749
H          2.55902        1.62409       -1.39983
H          2.44423        0.05126       -2.13898
H          4.86004        1.17088       -0.60791
H          4.41951       -1.62374       -0.91857
H          6.02434       -0.84858       -0.90707
H          5.44553       -2.02625       -3.22779
