18

N          1.87033       -0.10926       -1.35996
C          2.31643       -0.10259       -0.06350
O          2.02002       -1.04543        0.67051
C          3.23152        1.12172        0.31465
N          4.66733        0.86304        0.06338
C          2.90165        2.53785       -0.22741
C          3.31366        3.12212        1.13871
C          3.09917        1.71952        1.74115
H          1.30192       -0.89259       -1.65544
H          2.10232        0.61278       -2.02522
H          4.86281        0.59261       -0.90002
H          5.01728        0.08577        0.62802
H          1.83729        2.68858       -0.44794
H          3.47884        2.89493       -1.08601
H          2.66681        3.91079        1.53169
H          4.35345        3.46655        1.17801
H          2.10044        1.59139        2.17705
H          3.83615        1.40859        2.48848
