14

C          1.01619        0.02323       -0.10426
N          2.45854        0.07087       -0.06693
C          3.12466        1.28341        0.01829
O          2.65336        2.40648        0.08854
S          4.85980        0.95265        0.02040
C          4.56435       -0.75001       -0.10411
C          3.25649       -1.05584       -0.13767
N          2.77139       -2.33394       -0.23117
H          0.58641        1.02878       -0.11011
H          0.65264       -0.50552        0.78278
H          0.69113       -0.50213       -1.00770
H          5.37320       -1.46518       -0.15202
H          3.44076       -3.04956        0.03826
H          1.87494       -2.45615        0.22810
