12

C          1.75079       -0.03057        0.29324
C          3.15016        0.25423       -0.22082
O          3.28158        1.63701       -0.65378
C          4.13390        1.89157        0.36248
N          5.26014        2.57628        0.28191
S          6.33736        1.50353        1.06693
N          5.35456        0.09963        1.15871
C          4.16642        0.57836        0.80468
H          1.12253       -0.41702       -0.51638
H          1.26376        0.86716        0.69075
H          1.76793       -0.78620        1.08592
H          3.48577       -0.48204       -0.96010
