16

C          1.10323       -0.07638       -0.09810
C          2.59607       -0.10423       -0.02730
C          3.28008       -0.53778        1.04599
S          3.48370        0.51574       -1.41568
O          2.63312        1.46071       -2.11828
O          4.80799        0.92838       -0.98671
C          3.68247       -0.91131       -2.39766
C          2.77832       -1.23937       -3.33122
H          0.64669       -0.44588        0.82652
H          0.74313       -0.70374       -0.91878
H          0.74300        0.94540       -0.25403
H          2.76660       -0.89888        1.93188
H          4.36640       -0.51951        1.08644
H          4.58436       -1.48680       -2.24338
H          1.88666       -0.64265       -3.50715
H          2.92739       -2.10845       -3.96463
