15

O          1.13801       -0.14246        0.14367
N          2.53365       -0.22579        0.05145
C          3.10556        0.45749        0.98480
C          2.47942        1.24945        2.07246
C          3.44493        1.90045        2.73105
C          4.81392        1.64305        2.18980
C          4.58400        0.60609        1.14136
C          5.48535       -0.14101        0.49485
H          0.85140       -0.61026       -0.66246
H          1.41980        1.26732        2.26094
H          3.26423        2.55237        3.57575
H          5.48440        1.28274        2.97552
H          5.22084        2.56135        1.75303
H          6.54762       -0.02272        0.67582
H          5.17451       -0.89913       -0.21810
