16

N          1.23006        0.66872       -0.62599
C          2.43060        0.12604       -0.27612
O          2.84839       -0.92036       -0.75365
C          3.17731        0.85776        0.80433
N          2.81636        0.41820        2.18351
C          4.60809        1.26742        0.55000
C          3.53966        2.31751        0.60463
O          3.52087        3.12535        1.79874
H          0.69199        0.20711       -1.34659
H          0.88747        1.53100       -0.22693
H          2.96397       -0.59460        2.23714
H          1.81189        0.53988        2.32150
H          5.03987        1.03721       -0.41706
H          5.31644        1.21063        1.36724
H          3.27245        2.79935       -0.32903
H          3.52139        2.53746        2.58100
