14

C          0.87100        0.00368       -0.01949
O          2.29063       -0.03363        0.01805
C          2.83945        1.23408        0.38468
C          4.31725        1.11497        0.38028
N          5.17983        1.26900        1.36361
C          6.36949        1.06640        0.72476
N          6.28766        0.82301       -0.58546
O          4.90998        0.85350       -0.82349
H          0.50808       -0.98731       -0.30465
H          0.52646        0.72895       -0.76298
H          0.46788        0.25389        0.96692
H          2.48905        1.51088        1.38517
H          2.52462        2.00040       -0.33202
H          7.32740        1.10320        1.22461
