18

N          1.06613       -0.05851        0.08599
C          2.52476       -0.05279        0.07078
C          3.06446        0.70124        1.28093
C          4.59038        0.72388        1.28373
O          5.07984        1.40892        2.44831
C          5.13445        2.75497        2.34908
N          5.61150        3.28279        3.49722
O          4.80768        3.42793        1.38524
H          0.71895       -0.51599       -0.75619
H          0.72052        0.90074        0.04914
H          2.87557        0.41405       -0.85612
H          2.88397       -1.08742        0.08018
H          2.70956        0.24070        2.21185
H          2.67898        1.72828        1.28973
H          4.99386        1.17604        0.36938
H          4.98058       -0.29884        1.33159
H          5.85569        2.67848        4.26579
H          5.68872        4.28468        3.58023
