14

N          0.88779       -0.06462        0.16634
C          2.32958       -0.06414       -0.13945
C          3.05728        0.99327        0.73536
N          3.99292       -0.07176        1.14992
C          3.19316       -1.07609        0.68375
O          3.17938       -2.24903        0.97979
C          2.56729       -0.05412       -1.56269
C          2.77536       -0.04317       -2.74530
H          0.69352       -0.23504        1.15300
H          0.40526       -0.82082       -0.32170
H          2.50925        1.40118        1.59203
H          3.55970        1.80467        0.20073
H          4.44551       -0.20670        2.04362
H          2.96763       -0.03555       -3.79385
