22

C          1.02908       -0.16575       -0.14106
C          2.54771       -0.21174        0.00495
C          3.04248        0.95440        0.87136
C          4.55929        0.91476        1.09433
N          5.27528        1.33296       -0.11543
C          4.99080       -0.47956        1.56667
C          4.38838       -1.60961        0.73131
N          2.93477       -1.49875        0.59762
H          0.71447        0.77438       -0.60761
H          0.52573       -0.24237        0.83016
H          0.66986       -0.98554       -0.77274
H          2.97559       -0.13805       -1.00252
H          2.54630        0.91830        1.85128
H          2.75164        1.91099        0.41920
H          4.81259        1.64101        1.87553
H          5.12594        0.66031       -0.86658
H          6.27821        1.33795        0.06434
H          4.67733       -0.60596        2.61149
H          6.08398       -0.56494        1.56352
H          4.62010       -2.56863        1.20970
H          4.84881       -1.64285       -0.26213
H          2.49881       -1.59513        1.51513
