19

C          4.19442        1.08194        2.05323
O          3.73361        0.42121        0.87924
C          4.63081       -0.49193        0.39570
C          4.37753       -1.20437       -0.70795
C          5.25983       -2.20456       -1.30899
C          5.09268       -3.65297       -0.90816
N          4.63712       -3.17525       -2.20758
C          5.50252       -3.56550       -3.31593
H          3.41215        1.77131        2.38468
H          5.09803        1.66354        1.84108
H          4.38205        0.36313        2.85810
H          5.54740       -0.59857        0.96057
H          3.42883       -1.02789       -1.21323
H          6.25553       -1.85420       -1.56196
H          4.30962       -3.91356       -0.20481
H          5.97371       -4.28150       -0.85622
H          5.05291       -4.41400       -3.84198
H          6.51605       -3.85955       -3.01760
H          5.58785       -2.74179       -4.03291
