16

N          1.09720       -0.67835       -0.28296
C          2.25678       -1.09604        0.08701
N          2.89477       -0.67270        1.21232
O          4.28456       -0.68530        1.08348
C          4.79308       -1.44949        2.18356
C          6.28105       -1.48277        2.08538
C          7.10649       -0.25043        2.34415
O          6.97375       -1.28997        3.32511
H          0.82978       -1.15277       -1.15334
H          2.81560       -1.85297       -0.49089
H          2.50799        0.19684        1.57448
H          4.40352       -2.47342        2.12860
H          4.46760       -0.99592        3.12835
H          6.65310       -2.22454        1.39301
H          6.59697        0.68778        2.52477
H          8.06076       -0.15837        1.84042
