15

C          1.13198        0.01646        0.03454
C          2.61698        0.02538       -0.10878
C          3.36786       -1.07562       -0.22804
N          4.73583       -0.78555       -0.45457
S          5.00293        0.88669       -0.50272
O          5.87990        1.20573        0.60276
O          5.30468        1.25352       -1.86742
C          3.32360        1.34932       -0.10969
H          0.72563       -0.99995        0.00280
H          0.67442        0.58115       -0.78491
H          0.83168        0.47379        0.98179
H          3.03434       -2.10480       -0.18252
H          5.42669       -1.32218        0.07113
H          2.94873        2.02208       -0.88608
H          3.30137        1.81847        0.87825
