14

O          1.24085        0.34190       -0.73118
C          2.46318        0.28451       -0.69807
N          3.16822       -0.88368       -0.84741
N          4.54221       -0.89371       -0.62095
C          5.13732       -1.98186       -1.39005
C          5.21742       -0.56565       -1.88875
C          6.46365        0.13839       -1.81429
C          7.49680        0.74723       -1.75968
H          3.10125        1.17483       -0.56695
H          2.62634       -1.73932       -0.78250
H          4.49536       -2.67402       -1.92148
H          6.02419       -2.43080       -0.95832
H          4.59252       -0.31031       -2.74021
H          8.40701        1.29797       -1.70861
