18

N          1.55681       -0.64597       -0.33215
N          2.38019       -1.56382       -0.89071
C          3.62015       -1.51957       -0.49539
C          4.18650       -0.53386        0.53187
O          5.57213       -0.62585        0.80936
C          4.56215       -2.50384       -1.07924
C          4.73332       -3.83942       -0.39252
C          4.09755       -3.78303       -1.74841
H          1.42371        0.12978       -0.98693
H          0.61460       -1.05010       -0.27063
H          3.63830       -0.66109        1.47250
H          3.99666        0.48212        0.16478
H          5.66818       -1.20052        1.58766
H          5.45222       -2.05434       -1.51532
H          4.09052       -4.07221        0.44883
H          5.73578       -4.24154       -0.31320
H          3.03317       -3.97569       -1.82305
H          4.66962       -4.15857       -2.59066
