14

C          2.77401       -1.11717       -0.68559
C          2.39352       -0.00664       -0.03837
C          3.13733        0.61950        1.03596
C          2.95724        1.91177        1.35693
C          3.78198        2.24614        2.52159
N          3.92361        3.38718        3.08888
S          4.58770        0.79510        3.08652
N          4.03654       -0.11473        1.79277
H          2.17009       -1.51945       -1.49190
H          3.70578       -1.62661       -0.46289
H          1.47102        0.48235       -0.34903
H          2.30741        2.62090        0.87401
H          3.37616        4.09923        2.60124
H          3.74960       -1.07875        1.94899
