14

C          0.97435       -0.16509       -0.22371
C          2.30257       -0.15155       -0.08291
C          3.17704       -1.27171        0.12054
C          4.43905       -0.91071        0.39840
C          4.73289        0.57072        0.46883
S          3.19889        1.35202       -0.10093
O          2.70549        2.24373        0.93345
O          3.37378        1.80396       -1.46922
H          0.40812       -1.08947       -0.19341
H          0.41556        0.75885       -0.34978
H          2.83799       -2.29729        0.05655
H          5.22490       -1.63474        0.57877
H          5.54855        0.86470       -0.19299
H          4.92317        0.88069        1.49988
