17

C          1.05507       -0.05247        0.03797
C          2.58857       -0.03651        0.06219
C          3.13633        0.56643       -1.23918
N          3.02020        0.81293        1.21158
S          3.19650       -1.83836        0.12083
O          2.54736       -2.28008        1.53409
O          2.52080       -2.63129       -0.88184
O          4.63578       -1.85434        0.27234
H          0.64698        0.96004       -0.05858
H          0.64523       -0.49110        0.95477
H          0.67539       -0.64229       -0.80332
H          2.78658        1.59513       -1.38220
H          2.81469       -0.01581       -2.11002
H          4.23206        0.57906       -1.24130
H          2.87248        1.79506        0.98843
H          4.02972        0.69175        1.33030
H          1.77221       -2.85210        1.35444
