20

N          1.04834        0.04674        0.17865
C          2.49966        0.03808       -0.02346
C          3.19457        1.08038        0.88031
N          4.14096        0.02880        1.34347
C          5.35188        0.03069        0.50550
C          6.36059       -1.03921        0.94345
O          7.50504       -1.01865        0.09106
C          3.17285       -1.00919        0.89057
H          0.57785        0.81713       -0.29438
H          0.76146        0.10341        1.15647
H          2.82695        0.02325       -1.06760
H          2.58535        1.47866        1.70235
H          3.63676        1.93544        0.35679
H          5.84817        1.00615        0.59455
H          5.13671       -0.08959       -0.56498
H          5.93141       -2.04531        0.90561
H          6.70206       -0.85208        1.96651
H          7.21538       -1.30345       -0.79193
H          2.55528       -1.38461        1.71750
H          3.59244       -1.87878        0.37370
