21

C          0.85769       -2.35562       -0.12401
O          2.27701       -2.29307       -0.14359
C          2.74769       -1.10945       -0.78719
C          4.27274       -1.11913       -0.80128
C          4.83206       -2.33732       -1.54135
C          6.33170       -2.33001       -1.56232
C          7.07215       -3.40158       -2.32026
N          7.05741       -2.01850       -2.78911
H          0.56261       -3.28886        0.36147
H          0.45900       -2.35112       -1.14292
H          0.44627       -1.51778        0.44670
H          2.39141       -0.23111       -0.23732
H          2.36106       -1.06591       -1.81189
H          4.64215       -1.13390        0.23214
H          4.64064       -0.19593       -1.26366
H          4.42655       -2.36566       -2.56041
H          4.50275       -3.25602       -1.04161
H          6.77686       -1.99690       -0.63161
H          6.51067       -4.12217       -2.90079
H          8.00839       -3.75673       -1.90877
H          6.42766       -1.91589       -3.58578
