11

O          2.75774        1.03564       -0.06571
C          2.20150       -0.05680       -0.08004
C          2.94920       -1.31028       -0.07073
C          4.27682       -1.42971       -0.04640
C          4.46785       -2.86910       -0.04769
N          3.38241       -3.56677       -0.07050
C          2.35790       -2.65320       -0.08669
O          1.16035       -2.87507       -0.11014
H          1.10342       -0.15578       -0.10068
H          5.03428       -0.66810       -0.02949
H          5.48578       -3.28521       -0.02984
