14

O          1.83493       -0.29774       -1.32420
C          2.58543       -0.14744       -0.36469
N          2.81876       -1.15181        0.55490
O          3.80284       -1.07326        1.58688
C          4.77416       -0.11305        1.14417
C          5.25330        1.14837        1.71797
C          3.91585        1.20402        1.10061
N          3.25068        1.04915       -0.14272
H          2.42524       -2.06745        0.38575
H          5.35873       -0.41616        0.27505
H          6.06003        1.66831        1.21336
H          5.32506        1.20993        2.79853
H          3.16274        1.38265        1.87301
H          3.02232        1.82813       -0.74517
