15

N          1.12140        0.02348       -0.02212
C          2.49746        0.05850       -0.06637
C          3.18879        0.84837       -1.18318
C          2.26693        1.51285       -2.12286
C          1.52734        2.05954       -2.89622
C          3.20908       -0.60140        0.86911
C          4.68495       -0.65141        0.94041
O          5.25655       -1.27686        1.82561
H          0.57157        0.52100       -0.71508
H          0.63466       -0.48436        0.70724
H          3.83110        0.16792       -1.75589
H          3.83100        1.61524       -0.73254
H          0.87089        2.54418       -3.58201
H          2.71587       -1.15973        1.65827
H          5.24408       -0.10488        0.16653
