23

C          0.92192       -0.03733       -0.05854
C          2.43821       -0.08518        0.03112
C          3.01783        1.01111        0.90790
N          4.36028        0.51160        1.19296
C          4.23602       -0.93644        1.43396
C          4.10456       -1.22851        2.93546
C          5.48401       -1.62992        0.88158
C          2.96672       -1.36710        0.67357
H          0.59150        0.89890       -0.51952
H          0.46000       -0.10533        0.93252
H          0.54387       -0.86749       -0.66409
H          2.85587        0.00052       -0.98156
H          2.44768        1.13755        1.83589
H          3.05500        1.97370        0.38914
H          4.76258        0.99296        1.99546
H          4.99023       -0.89261        3.48694
H          3.98879       -2.30374        3.11431
H          3.23284       -0.72616        3.37023
H          6.38975       -1.29672        1.40203
H          5.61875       -1.42294       -0.18627
H          5.41241       -2.71703        1.00126
H          2.22123       -1.79482        1.35500
H          3.16885       -2.11680       -0.10028
