19

C          1.22541        0.10279       -0.00508
O          2.64865        0.11127        0.00177
N          3.08305       -0.92401       -0.83534
C          4.37583       -0.95386       -0.85948
C          5.14089       -1.94839       -1.66360
C          4.36632       -2.94647       -2.47062
C          6.48548       -1.88745       -1.61432
C          7.42319       -2.79424       -2.34753
H          0.86773        0.90600        0.64437
H          0.85106       -0.85317        0.37532
H          0.85106        0.27463       -1.01948
H          4.97380       -0.23009       -0.27423
H          3.28342       -2.82751       -2.37442
H          4.60509       -3.96520       -2.14818
H          4.60509       -2.84446       -3.53427
H          6.97318       -1.12982       -1.00173
H          6.90872       -3.54448       -2.95415
H          8.06257       -3.32227       -1.63350
H          8.06257       -2.20658       -3.01333
