14

C          2.80115       -1.22552       -0.09109
O          2.42970        0.14590        0.06533
C          3.09167        0.81037        1.02932
N          3.96954        0.31644        1.83897
C          4.37424        1.48949        2.66410
C          3.56756        2.63790        2.10008
O          3.60484        3.80729        2.44155
N          2.79392        2.10739        1.12860
H          2.21510       -1.64284       -0.91437
H          2.57463       -1.79241        0.81811
H          3.86230       -1.30746       -0.34731
H          5.44288        1.68219        2.54361
H          4.11420        1.32161        3.71216
H          2.15014        2.61571        0.54941
