13

N          1.07571       -0.08203        0.05782
C          2.41964       -0.03592        0.05775
C          3.15867        1.12780        0.05467
S          4.84054        0.80176        0.05585
C          4.57544       -0.88833        0.06013
C          3.23303       -1.19939        0.06084
C          2.70850        2.50110        0.05086
O          1.53149        2.86358        0.04988
H          0.51398        0.77167        0.05646
H          0.53753       -0.94161        0.06132
H          5.41308       -1.57221        0.06191
H          2.86254       -2.21646        0.06341
H          3.50179        3.26906        0.04872
