15

N          1.14505        0.47452        0.48405
C          2.60241        0.36033        0.42159
C          3.05430       -1.11637        0.27539
O          4.11721       -1.39191        1.21183
C          4.13848       -0.27063        2.00400
C          3.33908        0.73514        1.66032
C          3.40598        1.97535        2.34226
C          3.62606        2.94198        3.01226
H          0.71656       -0.17487       -0.17499
H          0.86827        1.40640        0.17740
H          2.96797        0.93554       -0.43600
H          3.41997       -1.31624       -0.73905
H          2.24400       -1.82646        0.48259
H          4.85241       -0.29998        2.81433
H          3.91805        3.73619        3.66786
