17

C          0.88233        0.03050       -0.10559
S          2.63397        0.16068        0.17074
O          3.03340        1.52140       -0.10732
O          2.95373       -0.49596        1.41871
N          3.21525       -0.79471       -1.11102
C          4.67160       -1.02896       -1.06445
C          5.33374       -1.81422       -2.16193
C          5.59510       -0.34224       -2.03194
H          0.37476        0.63119        0.65244
H          0.58229       -1.01523       -0.01708
H          0.65395        0.42259       -1.09836
H          2.94173       -0.38171       -2.00517
H          5.04371       -1.21398       -0.05775
H          4.72286       -2.15745       -2.98782
H          6.12605       -2.49869       -1.88182
H          5.17063        0.32052       -2.77629
H          6.56644       -0.02765       -1.66742
