19

O          1.17535        0.02241       -0.19991
C          2.56300       -0.15066        0.05444
C          2.97778       -1.59673       -0.20421
C          4.46049       -1.48720       -0.52594
C          4.51182       -0.27230       -1.44955
C          5.46508        0.89915       -1.16111
N          4.43333        1.50102       -0.29947
C          3.39136        0.66361       -0.94498
H          0.69860       -0.49702        0.46953
H          2.77040        0.14088        1.09096
H          2.42729       -2.00632       -1.06079
H          2.77641       -2.24542        0.65343
H          4.84215       -2.38916       -1.01337
H          5.03797       -1.32060        0.39102
H          4.42539       -0.54484       -2.50757
H          5.70168        1.50238       -2.04546
H          6.39700        0.64337       -0.64972
H          4.30077        2.50328       -0.43067
H          2.83829        1.17221       -1.74281
