14

O          1.02175       -0.06266        0.22349
N          2.39658       -0.28552        0.36670
C          2.99976        0.86100        0.39139
C          4.53112        0.97564        0.56718
N          5.25359       -0.32103        0.65993
C          6.14644       -0.01260       -0.47361
C          5.20873        1.16035       -0.79130
O          5.08242        1.93738       -1.71588
H          0.65403       -0.96752        0.22864
H          2.44167        1.81147        0.31126
H          4.84030        1.71185        1.31395
H          4.61809       -1.10490        0.47538
H          6.20009       -0.78154       -1.24616
H          7.15014        0.30350       -0.17990
