19

C          1.16947       -0.23347        0.35628
O          2.55648       -0.08170        0.10328
C          2.94176        0.20303       -1.25116
C          2.48475       -0.90825       -2.21050
C          2.43384        1.60797       -1.71036
N          2.80655        2.01318       -3.07616
C          4.46176        0.20303       -1.25116
C          5.76562        0.20303       -1.25116
H          1.04981       -0.50955        1.40813
H          0.73054       -1.03411       -0.24500
H          0.63297        0.70394        0.19570
H          1.39889       -0.89805       -2.35235
H          2.74818       -1.89696       -1.81530
H          2.94679       -0.80973       -3.19976
H          2.79702        2.36838       -1.00747
H          1.34104        1.64288       -1.65309
H          3.82386        1.99203       -3.16041
H          2.53296        2.98518       -3.22160
H          6.83093        0.19565       -1.24188
