12

O         -1.28402        1.16733        0.00205
C         -2.07177       -0.01333        0.00031
C         -1.30843       -1.11703       -0.00145
N         -0.01778       -0.65498       -0.00085
C          1.27019       -1.07361       -0.00161
N          2.09216       -0.03375       -0.00009
C          1.28095        1.09615        0.00171
C         -0.02689        0.70663        0.00123
H         -3.13622        0.13234        0.00062
H         -1.57212       -2.15939       -0.00303
H          1.56085       -2.11461       -0.00323
H          1.69674        2.09397        0.00319
