18

C          4.77759       -0.10809       -2.48529
N          4.31337       -0.01916       -1.28571
O          4.78020       -1.11365       -0.54193
C          4.35006       -0.95317        0.81066
C          4.91260       -2.08344        1.66535
C          6.41336       -2.07706        1.69447
C          7.18617       -0.95435        2.33772
N          7.12635       -2.27662        2.95402
H          4.52291        0.66066       -3.23122
H          5.43569       -0.92961       -2.81584
H          3.25519       -0.98098        0.83861
H          4.68681        0.02054        1.18806
H          4.58605       -3.04947        1.25864
H          4.50003       -2.00128        2.67822
H          6.84870       -2.54888        0.82018
H          6.65361       -0.15583        2.83748
H          8.13471       -0.67801        1.89296
H          6.49271       -2.27107        3.75574
