21

C          0.96723        0.04383        0.04719
O          2.38748        0.09901        0.01151
C          2.84966        1.07930       -0.91890
C          4.37783        1.08567       -0.91487
C          4.93223        2.11579       -1.85867
C          5.72853        1.82702       -2.90064
C          6.27021        2.84096       -3.85503
N          7.72256        2.80707       -3.82868
H          0.66971       -0.72420        0.76615
H          0.56892       -0.22462       -0.93600
H          0.55520        1.00445        0.37112
H          2.46537        2.06411       -0.62674
H          2.47446        0.83670       -1.92041
H          4.74573        0.08095       -1.15793
H          4.73953        1.29627        0.09906
H          4.66326        3.15075       -1.65705
H          6.00548        0.79273       -3.09845
H          5.91919        3.85014       -3.61393
H          5.91967        2.60281       -4.86494
H          8.03812        3.08937       -2.90164
H          8.08184        3.50859       -4.47329
