17

N          1.07805       -0.00177       -0.12194
C          2.54165       -0.06075       -0.05412
C          3.20173       -0.05435        1.29647
C          3.27705       -1.28393        0.43250
C          2.61513       -2.56015        0.80548
O          3.50608       -3.59984        0.37974
C          4.75335       -2.97120        0.07383
O          4.56608       -1.57275       -0.11656
H          0.77337        0.93957       -0.37110
H          0.64560       -0.19967        0.77901
H          3.04055        0.48084       -0.85583
H          2.58869       -0.09272        2.18759
H          4.10398        0.53608        1.41018
H          1.65592       -2.71106        0.30372
H          2.47330       -2.65141        1.88666
H          5.17602       -3.41892       -0.82932
H          5.44143       -3.12700        0.91146
