13

N          1.02132        0.11250        0.13392
C          2.36306        0.00696        0.09360
C          3.25508        1.05294        0.08383
O          4.53293        0.58504        0.04179
C          4.45639       -0.77239        0.01842
N          5.62700       -1.42546       -0.03156
C          3.13793       -1.17882        0.05512
Cl         2.53973       -2.76996        0.05346
H          0.53329        1.00041        0.06869
H          0.42058       -0.70474        0.05963
H          3.15534        2.12824        0.10229
H          6.47782       -0.90944        0.16613
H          5.66739       -2.41705        0.17877
