20

C          0.92604       -0.04920        0.22014
C          2.41836       -0.10439       -0.02278
C          3.31331        0.92842        0.68524
N          4.27251       -0.13754        0.83634
C          5.10640       -0.08710        1.91601
N          5.74216       -1.05761        2.47523
C          3.24160       -1.14867        0.77289
C          3.65815       -2.38428        0.00455
H          0.48728        0.81996       -0.28093
H          0.68807        0.01613        1.28596
H          0.44035       -0.94468       -0.18192
H          2.61652       -0.13720       -1.10540
H          2.92630        1.30105        1.64143
H          3.67625        1.75556        0.07290
H          5.26834        0.93693        2.29622
H          5.53623       -1.92182        1.97024
H          2.82213       -1.38002        1.76264
H          4.21132       -2.13707       -0.90736
H          2.77516       -2.96399       -0.28506
H          4.28586       -3.03812        0.61778
