19

O          2.23095        0.85995        1.06863
C          2.30731        0.00671       -0.06688
C          2.96914       -1.29175        0.33723
C          2.22321       -2.20335        1.33878
N          2.71064       -3.36227        0.54771
C          2.76222       -2.47832       -0.64153
C          3.91541       -2.81664       -1.49853
C          3.85388       -2.63396       -2.82277
H          1.86724        1.70930        0.76410
H          2.89563        0.51089       -0.84020
H          1.29308       -0.15157       -0.44647
H          4.01831       -1.13186        0.63049
H          1.13167       -2.09922        1.33699
H          2.58360       -2.17031        2.37014
H          2.05432       -4.13658        0.47266
H          1.80457       -2.45408       -1.18193
H          4.81956       -3.20618       -1.03792
H          2.96770       -2.24600       -3.31413
H          4.70567       -2.88017       -3.45100
