20

N          1.02360        0.01677        0.09133
C          2.49100        0.06922        0.02062
C          3.05852       -0.97656       -0.97925
N          2.43555       -0.79960       -2.29814
C          4.56167       -0.93372       -1.01575
C          5.33235       -1.84037       -1.94712
C          5.37077       -0.35150       -2.15006
O          6.57435        0.32421       -1.75606
H          0.70412        0.67967        0.79706
H          0.74097       -0.90570        0.42663
H          2.90694       -0.10393        1.01960
H          2.79061        1.07930       -0.28427
H          2.77277       -1.97348       -0.61947
H          2.63738        0.14792       -2.61858
H          1.42479       -0.76616       -2.12454
H          4.96816       -0.84461       -0.01264
H          4.77526       -2.42995       -2.66799
H          6.20954       -2.34215       -1.55917
H          4.86322        0.02924       -3.02930
H          7.13969       -0.22767       -1.19067
