17

O          3.85255        1.96220        0.79888
C          3.06553        1.02991        1.55044
C          3.17150       -0.37118        0.92870
C          4.57687       -0.91752        0.98189
C          4.87475       -2.26804        0.38360
C          5.39309       -1.02463       -0.28195
C          1.65366        1.46491        1.58567
N          0.53646        1.77996        1.62844
H          4.75491        1.60372        0.74578
H          3.46162        1.01920        2.57251
H          2.82463       -0.34164       -0.11291
H          2.51218       -1.06410        1.46676
H          5.08582       -0.68923        1.91276
H          5.59099       -2.90362        0.89376
H          4.07348       -2.81254       -0.10351
H          6.45788       -0.82777       -0.22684
H          4.94430       -0.74346       -1.22931
