15

N          1.13485       -0.25766       -0.33141
C          2.36746        0.20789        0.03669
O          2.76288        1.30926       -0.32480
C          3.13930       -0.73898        0.97526
O          2.72050       -2.10185        0.82569
C          4.65696       -0.60420        0.80659
C          5.07722       -0.97984       -0.60503
C          5.43772       -1.30207       -1.81592
H          0.56995        0.29367       -0.96192
H          0.83281       -1.18396       -0.05323
H          2.87089       -0.44351        1.99619
H          3.06606       -2.40604       -0.03466
H          5.17007       -1.27732        1.50272
H          4.98326        0.42105        1.01257
H          5.73884       -1.55206       -2.80753
