18

O          1.27270       -0.02913       -0.65198
C          2.36866        0.02211       -0.08952
C          3.13432       -1.26661        0.24027
N          4.06761       -1.19565        1.38614
C          5.23264       -0.37135        1.08603
C          5.02949        1.08642        1.48299
C          3.61656        1.61536        1.28259
N          3.01732        1.23102        0.02469
H          3.65593       -1.59657       -0.66587
H          2.38197       -2.02625        0.48110
H          4.38470       -2.15060        1.56810
H          5.52259       -0.45006        0.03073
H          6.08948       -0.75454        1.65353
H          5.73368        1.69877        0.90587
H          5.29645        1.22357        2.53895
H          3.63213        2.71046        1.30685
H          2.96250        1.27841        2.09354
H          3.58320        1.44304       -0.78582
