15

O          2.15180       -0.11793        1.27162
C          2.16470       -0.04809        0.04139
C          2.89109       -1.01756       -0.93141
N          4.35537       -1.14613       -0.63021
C          4.25823       -2.58165       -0.99285
C          2.75263       -2.53807       -0.66032
C          1.86909       -3.26419       -1.54765
C          1.12669       -3.86541       -2.27407
H          1.62466        0.77355       -0.45926
H          2.71608       -0.73268       -1.97861
H          4.55746       -0.99920        0.36399
H          4.86145       -3.24861       -0.36971
H          4.50495       -2.77500       -2.04429
H          2.55957       -2.76966        0.39662
H          0.46359       -4.40145       -2.91485
