17

N          1.69548       -0.19484       -0.90179
C          2.92563        0.03402       -0.14690
C          3.65875       -1.13765        0.44018
C          4.22347       -0.39799       -0.74050
C          5.19076        0.72644       -0.56813
O          4.48824        1.85751       -0.00430
C          3.22004        1.39036        0.34686
C          2.43565        2.16316        1.10478
H          1.08228       -0.82546       -0.38931
H          1.17417        0.67580       -1.00229
H          3.26706       -2.13129        0.26765
H          4.13122       -1.01700        1.40846
H          4.23704       -0.85976       -1.71532
H          5.62688        1.03339       -1.52369
H          5.99983        0.45269        0.11799
H          2.77203        3.14643        1.42348
H          1.45831        1.83033        1.43080
