20

N          0.94077       -0.19334       -0.14173
C          2.39089       -0.07661        0.03803
C          2.93729        1.38252       -0.03478
N          2.43611        2.05991       -1.27266
C          2.52467        2.22967        1.20732
O          1.11779        2.41431        1.34063
C          4.48636        1.32331       -0.09540
O          5.04280        2.62517       -0.26753
H          0.64460       -1.13219        0.12733
H          0.69163       -0.09262       -1.12185
H          2.86204       -0.68689       -0.74261
H          2.67173       -0.52293        0.99936
H          1.42656        1.90665       -1.30946
H          2.79681        1.55745       -2.08587
H          2.97014        3.22971        1.16340
H          2.87991        1.75386        2.12697
H          0.78269        2.61002        0.45195
H          4.82440        0.71155       -0.93926
H          4.90269        0.89069        0.82078
H          4.41763        3.10000       -0.85204
