17

C          1.08525        0.05933        0.19347
N          2.55405       -0.03986        0.14355
S          3.13538       -1.64150        0.12156
O          2.76240       -2.18265        1.41145
O          2.65410       -2.24642       -1.10189
C          4.87781       -1.51736        0.04870
C          5.67977       -2.60299        0.68766
C          5.44014       -0.48502       -0.60449
H          0.80323        1.11203        0.09941
H          0.71173       -0.30257        1.15567
H          0.61819       -0.49269       -0.62585
H          2.99205        0.46745        0.91286
H          5.05063       -3.37348        1.14353
H          6.32215       -2.19300        1.47459
H          6.31117       -3.10046       -0.05624
H          4.84760        0.27996       -1.09816
H          6.51910       -0.39154       -0.67552
