17

C          0.87500        0.01725       -0.12409
C          2.39990       -0.00712       -0.04114
N          2.95346        1.33985       -0.15622
C          2.90075       -0.62170        1.24046
C          2.63230       -0.16837        2.52289
S          3.34394       -1.13475        3.74112
C          4.03426       -2.17968        2.58196
C          3.72839       -1.79570        1.29519
H          0.54163        0.44281       -1.07690
H          0.42854        0.60968        0.68283
H          0.46859       -0.99780       -0.05076
H          2.77751       -0.59503       -0.88656
H          2.57967        1.92525        0.58777
H          2.63834        1.75870       -1.02872
H          2.04566        0.69309        2.80903
H          4.63282       -3.02393        2.89601
H          4.08097       -2.33319        0.42320
