12

C          0.06816        0.96993        0.03913
O         -0.77392       -0.16991        0.10951
C          0.64635       -0.43588        0.04142
C          1.45876       -0.85575        1.26067
N          1.21147       -0.44486        2.48593
C          2.14731       -1.03318        3.32097
N          3.08851       -1.83613        2.82381
S          2.80841       -1.90944        1.17596
H          0.15853        1.58022        0.92992
H          0.08852        1.52762       -0.88827
H          1.00140       -0.83407       -0.90235
H          2.12786       -0.84479        4.38721
