15

C          1.19885       -0.06125       -0.55208
O          2.46955       -0.08825        0.08727
C          2.98627        1.10138        0.39572
C          2.59170        2.41168        0.20260
C          3.58512        3.25240        0.76916
C          4.55881        2.43518        1.29489
O          5.69046        2.69082        1.93370
N          4.18759        1.14023        1.05758
H          0.90659       -1.09307       -0.76941
H          1.24641        0.48504       -1.50034
H          0.44144        0.37626        0.10702
H          1.68732        2.73746       -0.29291
H          3.57855        4.33373        0.78633
H          5.76572        3.65905        2.00810
H          4.71799        0.32818        1.33424
