12

O          2.49913        1.05641        0.08615
C          2.28447       -0.14093       -0.06589
C          2.86528       -1.22083        0.77010
N          3.69380       -0.87419        1.77351
C          4.18392       -1.89211        2.50202
C          3.87781       -3.21273        2.26309
C          3.02227       -3.45052        1.21073
N          2.49749       -2.47725        0.44310
H          1.61745       -0.49891       -0.86715
H          4.85116       -1.60557        3.31033
H          4.28452       -4.01350        2.86559
H          2.72536       -4.46242        0.94814
