16

C          1.38330       -1.99003        1.36571
O          2.17614       -1.17889        2.22835
N          2.95395       -0.35348        1.40469
C          4.28619       -0.65588        1.45685
N          4.86243       -1.80247        1.60438
C          6.29225       -1.49082        1.64263
C          6.39544       -0.03249        1.26874
O          5.06206        0.45113        1.31712
H          0.84042       -2.71221        1.98152
H          2.00697       -2.54113        0.65392
H          0.65496       -1.37088        0.83250
H          2.78588        0.63317        1.57435
H          6.85358       -2.12195        0.94651
H          6.68477       -1.66964        2.64945
H          6.79126        0.10689        0.25726
H          7.01996        0.52892        1.97091
