16

C          0.90281        0.09581        0.16866
C          2.24214        0.00081        0.08574
C          3.10306        1.24490       -0.01374
N          4.46738        1.04780        0.48426
N          5.18028       -0.05583        0.13134
C          4.48139       -1.13961       -0.01645
C          2.99205       -1.24872        0.07267
C          2.48852       -2.49411        0.09048
H          0.41140        1.06352        0.16294
H          0.25230       -0.76916        0.22955
H          2.65245        2.05837        0.56800
H          3.14482        1.56884       -1.06004
H          5.02316        1.88815        0.31908
H          5.02557       -2.07192       -0.24619
H          3.12363       -3.37098        0.06806
H          1.42128       -2.68555        0.13945
