13

O          1.72000       -1.03269       -0.09732
C          2.31211        0.03223       -0.04781
C          3.01173        0.61245       -1.26676
O          2.35134        1.09063       -2.17522
N          4.38660        0.56870       -1.20900
C          5.14173        1.02007       -2.34345
C          6.63614        0.90760       -2.08948
C          7.91804        0.81112       -1.87162
H          2.42067        0.64396        0.85764
H          4.85058        0.03341       -0.48686
H          4.87748        2.06172       -2.55551
H          4.86907        0.41191       -3.21287
H          8.96713        0.73381       -1.69901
