18

C          1.08741        0.28789        0.60246
O          2.30258       -0.22067        0.07661
C          2.84691        0.48271       -1.05019
C          3.35179        1.88491       -0.68087
N          2.40300        2.91788       -1.04130
C          1.66053        2.76775       -2.16806
N          1.40480        1.69316       -2.80659
C          1.96303        0.42534       -2.31220
H          0.91374       -0.21330        1.56030
H          0.24919        0.05173       -0.05726
H          1.13951        1.36098        0.79305
H          3.74779       -0.10489       -1.27991
H          4.29207        2.09104       -1.20198
H          3.54763        1.95187        0.39425
H          2.69685        3.86515       -0.82493
H          1.25740        3.72337       -2.54322
H          2.56403        0.00669       -3.13000
H          1.13315       -0.27473       -2.16512
