17

C          2.77644       -0.49596       -1.32951
N          2.50068        0.02916        0.00459
C          3.19583        1.31989        0.23006
S          5.01110        1.33883        0.23327
O          5.47770        0.38939        1.22942
O          5.48469        1.24848       -1.13674
C          5.39430        2.98925        0.84591
O          6.79039        3.29743        0.98473
H          2.19144       -1.40762       -1.48539
H          3.82962       -0.76315       -1.45415
H          2.48850        0.21819       -2.10743
H          2.85476       -0.64352        0.69002
H          2.89920        1.67596        1.22295
H          2.86533        2.06522       -0.50139
H          4.93049        3.08662        1.83077
H          4.95133        3.71218        0.15662
H          7.25065        2.44734        1.12633
