14

O          1.06450       -0.15474        0.71524
N          2.37674        0.16002        0.38745
C          2.82035        1.44505        0.50696
C          4.07080        1.79082        0.19176
O          5.03641        0.92608       -0.25791
C          4.65383       -0.44862       -0.34197
C          3.19730       -0.87262       -0.02284
N          2.82712       -2.11461       -0.17120
H          0.70126       -0.42967       -0.14415
H          2.08479        2.15080        0.86257
H          4.44822        2.80446        0.26473
H          5.31519       -1.01346        0.32423
H          4.87167       -0.78076       -1.36402
H          3.62116       -2.68967       -0.45986
