14

C          1.09679       -0.07618       -0.05798
C          2.61486       -0.04898       -0.02343
O          3.03403       -0.31314        1.31418
C          4.38238       -0.26300        1.44407
C          4.96819       -0.75688        2.59365
S          6.66068       -0.54541        2.42895
N          6.52079        0.16583        0.92090
N          5.26680        0.25337        0.51060
H          0.72598        0.05401       -1.07670
H          0.68755        0.72621        0.56859
H          0.71292       -1.01968        0.34183
H          2.96259        0.93305       -0.36081
H          3.00371       -0.82823       -0.69292
H          4.51082       -1.21135        3.45862
