21

C          0.98346       -1.38725       -0.23027
O          2.40275       -1.30385       -0.29038
C          2.93670       -0.81454        0.94365
C          4.44780       -0.84903        0.89848
C          5.16913       -0.02446       -0.14278
N          4.31299        0.74993       -1.03040
C          5.12233       -1.58728        1.81076
C          6.60670       -1.71213        1.94931
H          0.60451       -1.59913       -1.23436
H          0.54716       -0.44606        0.11579
H          0.68599       -2.20485        0.43464
H          2.55382       -1.43607        1.76291
H          2.59429        0.21252        1.11659
H          5.78055       -0.69422       -0.76020
H          5.84297        0.67984        0.35841
H          3.60378        0.10806       -1.40117
H          4.85983        1.04614       -1.83649
H          4.55762       -2.16728        2.53905
H          7.16356       -1.13620        1.20628
H          6.90223       -2.76115        1.85301
H          6.90878       -1.36180        2.94130
