14

C          1.04604       -0.05762        0.00135
C          2.56429       -0.09044       -0.12528
N          3.19781       -0.97029        0.85903
S          3.56202       -0.49590        2.39702
C          3.76174       -2.07711        3.03081
O          4.14904       -2.47344        4.10589
C          3.26137       -2.88615        1.88775
N          2.95336       -2.29604        0.77998
H          0.62626        0.64561       -0.72546
H          0.73113        0.26324        0.99935
H          0.61043       -1.04194       -0.19803
H          2.96039        0.92797       -0.03337
H          2.83229       -0.42934       -1.13320
H          3.16209       -3.96845        2.05539
