21

C          0.92354       -0.09260       -0.07267
O          2.34282        0.00751       -0.09911
C          2.77236        1.10309       -0.90750
C          4.29582        1.17472       -0.86995
C          4.86300        2.30670       -1.74085
N          4.46127        3.63010       -1.26871
C          6.36600        2.27001       -1.75122
C          7.11484        2.12475       -2.85347
H          0.64879       -0.93620        0.56673
H          0.53466       -0.27414       -1.07886
H          0.48297        0.81825        0.34334
H          2.33367        2.02565       -0.51279
H          2.42568        0.95333       -1.93635
H          4.69970        0.20890       -1.20508
H          4.62823        1.27751        0.17246
H          4.48794        2.18473       -2.76467
H          4.63434        3.70399       -0.26766
H          3.46164        3.76212       -1.39841
H          6.87090        2.38049       -0.79374
H          6.66776        2.02760       -3.83740
H          8.19831        2.12329       -2.79085
