19

C          1.11947        0.09310        0.03928
C          2.60963        0.01968        0.00641
C          3.38318       -0.72662       -1.05048
N          2.71668       -1.45845       -2.13260
C          3.44077        0.79673       -1.00950
C          2.76321        1.62102       -2.07267
C          4.67114        1.38079       -0.52221
C          5.69182        1.88726       -0.14310
H          0.73055       -0.58735        0.80421
H          0.64526       -0.17534       -0.90810
H          0.79977        1.10666        0.30139
H          2.99612       -0.02931        1.02192
H          4.27336       -1.24810       -0.69560
H          1.89724       -0.97107       -2.48715
H          2.38497       -2.36341       -1.80061
H          1.81699        1.19487       -2.41676
H          3.41600        1.72378       -2.94604
H          2.54535        2.62510       -1.69064
H          6.59671        2.34827        0.17412
