17

O          3.42405        2.36134       -2.54188
C          2.69547        1.96651       -1.63661
C          3.12912        1.12447       -0.44974
C          4.59091        0.83967       -0.41167
C          5.19341       -0.35263       -0.44434
C          6.66569       -0.19049       -0.32345
N          6.91297        1.25813       -0.43985
C          5.60554        1.92185       -0.25884
H          1.62167        2.22156       -1.64497
H          2.55381        0.19304       -0.49411
H          2.83190        1.65438        0.46214
H          4.70300       -1.31178       -0.51252
H          7.19553       -0.73475       -1.11123
H          7.01394       -0.55271        0.64925
H          7.19703        1.43623       -1.40469
H          5.48979        2.71845       -0.99881
H          5.54849        2.36351        0.74163
