21

C          1.03193        0.01658       -0.13804
C          2.54550        0.10286       -0.03034
C          3.13995       -1.01685        0.82696
N          4.44834       -0.50895        1.26841
C          4.28759        0.95444        1.34494
C          5.49459        1.85224        1.39047
C          4.67522        1.64318        2.62861
C          3.02403        1.38827        0.65075
H          0.72934       -0.92367       -0.61040
H          0.64005        0.84236       -0.74280
H          0.55688        0.06697        0.84688
H          2.98430        0.05055       -1.03650
H          3.24243       -1.95262        0.26852
H          2.52010       -1.21379        1.70929
H          5.13589       -0.73046        0.54681
H          5.44047        2.82285        0.91151
H          6.48021        1.40140        1.36483
H          4.06359        2.46537        2.98120
H          5.09272        1.03578        3.42420
H          3.20421        2.17573       -0.08927
H          2.28922        1.75619        1.37577
