13

O          2.68450       -0.08966        1.29110
C          2.39607        0.01737       -0.02705
O          1.51128        0.71942       -0.48400
C          3.25721       -0.83559       -0.87030
N          3.18040       -2.27491       -0.56952
C          2.67259       -1.79831       -1.86405
C          3.42925       -2.12069       -3.03657
C          4.06691       -2.38404       -4.02014
H          3.42051       -0.71919        1.43698
H          4.24610       -0.44105       -1.07461
H          2.37011       -2.51400        0.00867
H          1.59193       -1.80114       -1.98133
H          4.63560       -2.61880       -4.88957
