17

N          0.98783       -0.03127       -0.01955
C          2.44921       -0.08547       -0.13391
C          3.07077        0.96270        0.81353
C          4.11787       -0.10460        1.20252
C          3.08627       -1.19768        0.78056
O          2.28746       -1.72950        1.86483
C          3.66026       -2.31873        0.06158
C          4.12863       -3.25275       -0.53150
H          0.55485        0.71258       -0.56459
H          0.59615        0.02432        0.91609
H          2.82504       -0.05481       -1.16285
H          2.44879        1.27732        1.66089
H          3.47353        1.85662        0.32900
H          4.40474       -0.10098        2.25844
H          5.02965       -0.06771        0.59348
H          1.85748       -0.95741        2.25878
H          4.53154       -4.09041       -1.05144
