15

O          0.75062       -0.05012        0.35363
C          2.14918       -0.01926        0.11612
C          2.84029       -0.19016        1.42713
C          4.17173       -0.21638        1.62939
C          5.15560       -0.07715        0.56220
C          6.48833       -0.09622        0.71149
C          4.67839       -0.40155        3.05045
N          5.09871       -0.55515        4.22934
H          0.31430        0.06242       -0.50796
H          2.39726        0.94541       -0.33681
H          2.39714       -0.83544       -0.56918
H          2.18018       -0.30250        2.28726
H          4.77741        0.05441       -0.44919
H          6.98091       -0.22115        1.67215
H          7.14086        0.01607       -0.14982
