19

C          1.11331        0.03363        0.01548
C          2.60038        0.00547       -0.04490
C          3.37014       -1.08939       -0.14448
C          4.82680       -0.74721       -0.17877
C          4.83986        0.78146       -0.39250
N          5.12383        1.14258       -1.78836
C          3.43208        1.19740       -0.02160
C          3.04743        2.43679        0.30565
H          0.69118       -0.97366       -0.06639
H          0.70657        0.62903       -0.80917
H          0.76822        0.46367        0.96068
H          2.99971       -2.10431       -0.17143
H          5.34944       -1.28928       -0.97374
H          5.29496       -1.01254        0.77678
H          5.58842        1.25170        0.25669
H          4.38694        0.74281       -2.37182
H          5.98476        0.68596       -2.08141
H          3.76361        3.25291        0.29861
H          2.02729        2.67217        0.58606
