12

N          2.78103       -1.45215       -0.25054
C          2.50444       -0.13333       -0.01625
O          1.76074        0.47961       -0.77642
C          3.14030        0.44313        1.13865
C          3.13787        1.72379        1.64232
C          3.94793        1.64806        2.78700
N          4.41885        0.41530        2.98732
O          3.90924       -0.34441        1.94632
H          2.36871       -1.88956       -1.06258
H          3.41214       -1.98047        0.33697
H          2.62378        2.57928        1.22933
H          4.21761        2.43050        3.48270
