23

C          0.99348        0.00023        0.04077
C          2.51942       -0.06820       -0.08578
C          2.99556       -1.48645       -0.42703
C          2.68465       -1.85097       -1.87570
C          3.19069       -0.78010       -2.84380
N          2.67164        0.55127       -2.50023
C          3.15449        1.54778       -3.45671
C          3.04879        0.93064       -1.12994
H          0.63598       -0.71668        0.78734
H          0.48577       -0.21748       -0.90398
H          0.68086        0.99922        0.36314
H          2.93811        0.20427        0.89171
H          2.54480       -2.22032        0.25054
H          4.08097       -1.54166       -0.27396
H          1.60382       -1.98525       -2.00387
H          3.15019       -2.81330       -2.11833
H          2.86440       -1.05402       -3.85468
H          4.28871       -0.78083       -2.84563
H          2.82822        1.29566       -4.47176
H          4.24782        1.62757       -3.45558
H          2.73675        2.53480       -3.22914
H          2.64843        1.92588       -0.89771
H          4.14170        0.99834       -1.04025
