22

C          0.91751       -0.05610        0.10408
C          2.45114       -0.02978        0.07039
C          2.97513        0.06118       -1.38780
N          2.52417        1.25539       -2.10397
C          3.00295        1.09317        0.95344
C          4.35904        0.57707        1.39577
N          4.23452       -0.88012        1.49168
C          3.02750       -1.28196        0.75491
H          0.48630        0.87425       -0.27906
H          0.54646       -0.18041        1.12823
H          0.52671       -0.88813       -0.49135
H          2.64636       -0.82137       -1.95149
H          4.07138        0.05038       -1.40378
H          1.51069        1.22401       -2.22411
H          2.91425        1.24535       -3.04779
H          2.36612        1.24381        1.83400
H          3.08729        2.05577        0.43885
H          4.66518        1.01500        2.35165
H          5.13023        0.82083        0.65788
H          4.12228       -1.14315        2.47180
H          2.31152       -1.71237        1.46539
H          3.27826       -2.07016        0.03667
