16

O          1.03120        0.18884        0.03938
N          2.39453       -0.11982       -0.01317
C          3.08022        0.94199        0.25941
C          4.55404        0.90859        0.28505
C          5.26675        1.99842        0.60553
C          6.72992        2.06186        0.65969
C          7.40932        2.48972        1.93537
N          7.43055        1.09840        1.50438
H          0.61735       -0.66884       -0.17385
H          2.59737        1.90883        0.48819
H          5.02473       -0.03794        0.04335
H          4.74916        2.92887        0.83006
H          7.22263        2.31031       -0.27547
H          6.81862        2.71353        2.81447
H          8.35212        3.01753        1.86050
H          6.77219        0.53910        2.04966
