14

N          1.09551       -0.16550       -0.17499
C          2.42293        0.02704       -0.11988
C          3.21052        1.15926       -0.03581
N          2.77799        2.43796        0.01854
C          4.54142        0.69482       -0.02805
O          5.67822        1.40684        0.03071
C          4.49451       -0.67351       -0.08758
O          3.19624       -1.09226       -0.14496
H          0.48280        0.56372        0.16642
H          0.76363       -1.10414        0.01728
H          1.80580        2.63522       -0.20713
H          3.38787        3.21853       -0.19074
H          5.45556        2.34966        0.09758
H          5.24107       -1.45340       -0.09786
