15

O          1.09002       -0.53073        2.09926
C          2.31129       -0.51785        2.16947
N          3.11652       -0.09341        1.14973
C          4.54179       -0.07244        1.21808
C          5.33634       -1.25042        0.72805
C          5.38424        0.04701       -0.03189
C          6.58970        0.82306        0.01082
C          7.60090        1.47053        0.02705
H          2.86596       -0.84818        3.06294
H          2.63451        0.22529        0.31745
H          4.91280        0.43430        2.10724
H          4.80805       -2.07838        0.26883
H          6.20104       -1.55201        1.30836
H          4.86003        0.06859       -0.98256
H          8.49967        2.04280        0.03081
