10

O          2.50481       -0.90154       -0.91859
C          3.29513       -0.80694       -0.00619
C          3.29315       -0.53698        1.52780
C          4.76772       -0.51105        1.36090
N          5.76705        0.32243        1.60100
O          6.47839        0.31091        0.36341
N          5.70102       -0.29336       -0.66757
C          4.70904       -0.82925        0.02407
H          2.91952       -1.38414        2.11169
H          2.84186        0.38916        1.88644
