15

C          0.87257       -0.01615        0.07578
C          2.35530        0.00284        0.08056
C          3.23608        1.06609        0.08461
C          4.60006        0.61239        0.08951
C          5.75301        1.47012        0.09556
C          5.77289        2.81054        0.09870
N          4.74795       -0.71454        0.08834
S          3.26342       -1.44165        0.08206
H          0.46926        1.00189        0.07443
H          0.48661       -0.52753        0.96366
H          0.49209       -0.52776       -0.81433
H          2.92056        2.10025        0.08451
H          6.71245        0.95477        0.09805
H          4.87287        3.41401        0.09683
H          6.72092        3.34001        0.10362
