14

C          0.92318       -0.18884       -0.01230
N          2.37544       -0.24012       -0.01351
C          3.00044        0.78126        0.43591
S          4.78125        0.78198        0.44434
N          4.89597        2.37201        0.96343
C          3.64356        2.83368        1.29001
C          2.56536        2.08575        1.01791
O          1.25998        2.41698        1.26703
H          0.53647       -1.10648       -0.46739
H          0.54563        0.64787       -0.60971
H          0.52157       -0.13939        1.00516
H          5.65146        2.64731        1.58899
H          3.61200        3.80934        1.75974
H          1.24010        3.31910        1.62605
