14

C          1.40033        0.39912       -0.85178
O          2.48922        0.06853       -0.00040
C          3.05118        1.08742        0.65940
C          2.79956        2.44794        0.67839
C          3.67894        3.12697        1.57151
N          3.60270        4.45674        1.75321
N          4.56852        2.37341        2.20100
S          4.35769        0.79798        1.73679
H          1.02523       -0.52650       -1.29805
H          1.72583        1.05988       -1.66231
H          0.58259        0.85743       -0.28520
H          2.02725        2.93119        0.09909
H          3.13596        5.06279        1.09086
H          4.36544        4.89746        2.25712
