16

C          0.93381       -0.00441       -0.08630
C          2.42698        0.06660       -0.08686
C          3.27159        1.17124       -0.08906
C          2.84412        2.60322       -0.09228
C          4.63951        0.74696       -0.08747
O          5.71959        1.55010       -0.08774
C          4.79758       -0.61395       -0.08557
S          3.29616       -1.41688       -0.08472
H          0.47153        0.98555       -0.08634
H          0.57462       -0.53383        0.80287
H          0.57390       -0.53450       -0.97476
H          1.75848        2.72256       -0.09757
H          3.23782        3.11122       -0.97898
H          3.22984        3.11282        0.79699
H          5.45135        2.48309       -0.08737
H          5.72312       -1.17167       -0.08440
