12

O         -1.11600       -1.44377       -0.00022
C         -2.07939       -0.45860        0.00213
C         -1.50918        0.80882        0.00335
C         -0.14801        0.54699        0.00162
C          0.05608       -0.77637       -0.00045
S          1.66312       -1.21300       -0.00269
C          2.10792        0.48213       -0.00075
C          1.00188        1.32967        0.00157
H         -3.09907       -0.81908        0.00263
H         -2.03455        1.75219        0.00521
H          3.15565        0.74989       -0.00144
H          1.06217        2.40980        0.00304
