12

C          0.10788        0.90734       -0.04057
O         -0.74295       -0.21275        0.14793
C          0.67782       -0.49054        0.12926
C          1.48474       -0.77145        1.39887
N          2.53649       -1.59549        1.34945
S          3.15942       -1.66879        2.89684
C          1.99288       -0.58267        3.52301
N          1.14909       -0.16320        2.60663
H          0.19131        1.61420        0.77592
H          0.14818        1.35426       -1.02552
H          1.05065       -0.99570       -0.75388
H          1.95695       -0.27464        4.55854
