17

N          1.04233        0.00501       -0.05838
C          2.49969       -0.00944       -0.04039
C          3.07382       -1.12686        0.83944
C          3.88387       -0.25749        1.79167
O          4.55920        0.77850        0.92654
C          3.11481        1.17475        0.70810
C          2.95754        0.91725        2.24529
O          3.53940        1.89873        3.13838
H          0.69806       -0.85272       -0.49164
H          0.71348        0.76649       -0.65330
H          2.88721       -0.07505       -1.06291
H          3.70761       -1.80773        0.26306
H          2.31319       -1.71177        1.36706
H          4.55237       -0.70143        2.52962
H          3.00968        2.19521        0.33790
H          1.95909        0.63165        2.58877
H          4.41410        2.07222        2.73935
