17

N          1.06110       -0.10900       -0.04433
C          2.52587       -0.14923       -0.00520
C          3.15715       -1.13487       -1.04493
C          4.66387       -0.86171       -0.84475
O          4.66749        0.58689       -0.85864
C          3.23870        0.86157       -0.98550
C          2.73913       -0.08466       -2.14991
O          3.51740       -0.08864       -3.37036
H          0.63357       -0.48965        0.80211
H          0.60608       -0.61663       -0.80330
H          2.93173       -0.17662        1.01079
H          2.79417       -2.15851       -1.10308
H          5.27827       -1.24379       -1.66400
H          5.03551       -1.22212        0.11875
H          2.96774        1.91590       -0.98407
H          1.67991       -0.03028       -2.41345
H          4.34220        0.37859       -3.13460
