14

C          1.06302        0.02166        0.05610
C          2.40166        0.00882        0.01548
C          3.32062       -1.15884       -0.15105
C          4.63909       -0.60888       -0.62522
C          4.75770        0.72847       -0.61418
S          3.31379        1.49821       -0.02355
O          2.78995        2.37610       -1.05089
O          3.54174        1.95807        1.33130
H          0.48971       -0.89812        0.01310
H          0.50927        0.95590        0.11313
H          2.92414       -1.87204       -0.88017
H          3.46640       -1.67131        0.80602
H          5.43561       -1.26572       -0.95323
H          5.61033        1.31055       -0.92182
