16

O          1.06157       -0.21726        0.35328
N          2.41347        0.07202        0.09012
C          3.05393       -1.00183       -0.25600
N          2.51720       -2.25261       -0.30764
C          3.00267       -3.27134       -1.19284
C          4.51315       -3.27013       -1.14544
C          4.99663       -1.85994       -1.41300
O          4.36152       -0.87142       -0.58749
H          0.70060        0.67261        0.52309
H          1.51275       -2.21460       -0.16396
H          2.64360       -3.07645       -2.20932
H          2.61378       -4.24712       -0.88479
H          4.92795       -3.96774       -1.88011
H          4.84811       -3.58901       -0.15126
H          4.82657       -1.57494       -2.45674
H          6.07530       -1.79649       -1.22937
