11

O          2.79049       -1.36134       -1.66592
C          3.30191       -1.19086       -0.59020
C          2.91823       -1.09085        0.93702
C          4.36412       -0.87190        1.09603
N          5.35126       -0.38948        1.82040
O          6.41452       -0.31248        0.85890
C          5.92206       -0.62353       -0.39950
C          4.61835       -0.90143       -0.24406
H          2.53778       -2.00932        1.39045
H          2.29885       -0.26145        1.28468
H          6.62314       -0.52678       -1.21510
