13

C          1.04587        0.08566        0.00622
C          2.53974        0.08398        0.00039
C          3.26493       -0.32215       -1.05437
S          4.98837       -0.30684       -0.99694
O          5.52357       -0.20512        0.34394
O          5.56671       -1.12837       -2.03810
C          5.44519        1.32593       -1.62560
N          5.69592        2.38756       -2.03766
H          0.67886        0.45976        0.96750
H          0.65307       -0.92646       -0.13040
H          0.65212        0.73887       -0.77843
H          3.02660        0.42710        0.91320
H          2.80932       -0.67770       -1.96895
