19

C          0.88297       -0.07100        0.08239
C          2.39843       -0.06112        0.08587
C          2.99867        1.13683        0.84279
C          4.38492        0.65092        1.29673
N          5.41557        0.85899        0.27097
C          4.11991       -0.85327        1.42009
N          4.94984       -1.69863        1.92240
N          2.93255       -1.18230        0.83560
H          0.48930        0.82213       -0.41194
H          0.47748       -0.10772        1.09942
H          0.50665       -0.95029       -0.45151
H          2.77874       -0.08972       -0.94233
H          2.39635        1.36676        1.73210
H          3.03411        2.04366        0.22975
H          4.69048        1.08595        2.25160
H          5.13787        0.37655       -0.58478
H          6.26821        0.38168        0.56553
H          5.77104       -1.20468        2.28580
H          2.84557       -2.12888        0.48517
