12

O          1.04278       -0.02127        0.00514
N          2.44174        0.08563       -0.08140
C          2.99124       -1.02878       -0.45583
O          4.36119       -1.05834       -0.56888
C          4.99116       -2.26181       -0.88880
C          4.33759       -3.39346       -1.12600
C          2.88768       -3.24216       -1.04144
N          2.26290       -2.16043       -0.73622
H          0.78519        0.85997        0.32875
H          6.06460       -2.14071       -0.90578
H          4.79426       -4.34089       -1.36586
H          2.30410       -4.15011       -1.26647
