13

O          0.89797        0.03033        0.44554
S          2.35144        0.00993        0.46968
O          3.06533        0.04084        1.73124
C          2.93963        1.33092       -0.55594
O          4.21767        1.01692       -1.09658
N          4.13622        0.01753       -2.08012
C          3.54462       -1.08048       -1.71517
C          2.88715       -1.40778       -0.41917
H          3.02211        2.22707        0.06404
H          2.21593        1.51488       -1.35597
H          3.56736       -1.90295       -2.45241
H          3.56799       -1.99890        0.19738
H          2.00310       -2.01426       -0.64044
