20

C          1.06488        0.20551       -0.10225
C          2.56167        0.04792        0.18581
C          2.95201       -1.44094        0.39719
N          3.05380       -1.81452        1.81787
C          3.51186       -0.65999        2.63382
C          2.40769        0.42491        2.60279
N          2.99747        0.92762        1.30981
C          4.31413        0.39338        1.81831
H          0.81410       -0.27056       -1.05671
H          0.78661        1.26209       -0.17874
H          0.43922       -0.26113        0.66455
H          3.09004        0.40166       -0.70970
H          3.93240       -1.61442       -0.06647
H          2.24966       -2.11286       -0.10755
H          3.63978       -2.64246        1.90201
H          3.89060       -0.92871        3.62226
H          2.49344        1.16137        3.41440
H          1.36684        0.08908        2.59431
H          4.84851        1.11876        2.44771
H          5.03153        0.03783        1.07078
