19

O          2.68416        0.91543        0.93864
C          2.34315       -0.40156        1.35924
C          2.88207       -1.43081        0.36682
C          4.38636       -1.47693        0.35974
C          5.11498       -2.56827        0.64326
C          6.57664       -2.65673        0.65132
C          7.24139       -3.67310       -0.24249
N          7.31429       -2.25017       -0.54101
H          2.39458        1.52257        1.64096
H          1.25095       -0.46583        1.40376
H          2.74566       -0.56957        2.36455
H          2.54681       -1.17786       -0.64527
H          2.47006       -2.41595        0.61583
H          4.89274       -0.54827        0.09571
H          4.59246       -3.48445        0.91374
H          7.05528       -2.42921        1.59813
H          6.64236       -4.27532       -0.91362
H          8.15707       -4.13363        0.10675
H          6.66503       -1.99340       -1.28671
