17

O          2.53222        2.01299        0.59196
C          2.60614        1.01718        1.60669
C          3.12060       -0.29983        1.02747
C          4.49105       -0.15856        0.42526
C          5.69061       -0.39347        0.97552
C          5.93176       -0.82481        2.36691
N          7.13961       -0.97050        2.80866
O          7.10151       -1.36182        4.15189
H          2.33656        2.85661        1.03518
H          1.59969        0.87820        2.01387
H          3.26183        1.37420        2.40807
H          2.44496       -0.63166        0.22892
H          3.10250       -1.07949        1.79538
H          4.48477        0.19904       -0.60589
H          6.59258       -0.23325        0.39190
H          5.04928       -0.99565        3.00734
H          8.05211       -1.43076        4.37325
