17

C          1.02218        0.01522        0.16619
C          2.54217        0.03086        0.22440
N          3.06421        0.79291       -0.92829
O          2.63349        2.17133       -1.00858
S          4.75718        0.75130       -1.19215
C          5.37334        1.90505        0.02120
O          5.24152       -0.56960       -0.85161
O          5.00429        1.31765       -2.50353
H          0.61300       -0.58449        0.98305
H          0.67065       -0.40553       -0.78259
H          0.61179        1.02822        0.25109
H          2.89910       -1.00298        0.17639
H          2.87777        0.48222        1.16223
H          2.27517        2.25649       -1.91390
H          5.06956        1.58417        1.01703
H          4.99628        2.90362       -0.20780
H          6.46367        1.90834       -0.04838
