18

C          2.32595       -1.16907       -0.71845
C          2.50647        0.09137        0.11290
N          3.06707        1.18015       -0.69455
O          2.15235        2.26549       -0.81195
C          1.42277        2.11448       -2.02986
C          4.40178        1.54180       -0.73208
N          4.64058        2.78544       -1.23789
S          5.70832        0.60261       -0.28867
H          1.92802       -1.97925       -0.09999
H          3.27392       -1.50256       -1.15159
H          1.62850       -0.99713       -1.54492
H          3.16060       -0.11354        0.96692
H          1.53562        0.40594        0.51344
H          0.87870        3.04400       -2.21821
H          0.69686        1.30225       -1.93164
H          2.09380        1.92398       -2.87372
H          3.86405        3.43319       -1.23348
H          5.57891        3.15906       -1.17570
