20

N          1.00560        0.26880       -0.26598
C          2.41244       -0.08006       -0.02721
C          3.06939        0.79552        1.07569
C          4.56030        0.43281        1.23436
O          5.32336        0.84497        0.09078
C          5.22168        2.26713       -0.07469
C          3.76040        2.70662       -0.25681
N          2.90099        2.25252        0.84656
H          0.62045       -0.38345       -0.95013
H          0.96090        1.18409       -0.70957
H          2.95762        0.00412       -0.97421
H          2.46165       -1.13228        0.27654
H          2.56545        0.56343        2.02263
H          4.68216       -0.64997        1.34322
H          4.98263        0.90032        2.13290
H          5.80343        2.53767       -0.96180
H          5.68167        2.76357        0.78826
H          3.37579        2.31261       -1.20420
H          3.71488        3.79928       -0.31886
H          1.92035        2.43275        0.63665
