21

C          1.01833        0.00811        0.07213
C          2.53963       -0.02614        0.12244
C          3.11791        1.05923        1.01983
N          4.47605        0.57997        1.26028
C          4.34895       -0.86032        1.50827
C          3.10490       -1.32230        0.72759
C          3.42365       -2.35230       -0.32537
C          2.89928       -3.58407       -0.36392
H          0.66871        0.95934       -0.34272
H          0.58275       -0.10118        1.07133
H          0.62987       -0.79971       -0.55605
H          2.92196        0.11615       -0.89864
H          2.56763        1.14638        1.96431
H          3.12398        2.03605        0.52715
H          4.89496        1.04955        2.06088
H          4.19274       -1.03498        2.58011
H          5.26681       -1.38102        1.21698
H          2.38635       -1.73853        1.44812
H          4.13821       -2.06065       -1.09422
H          2.18614       -3.92774        0.37803
H          3.17876       -4.27846       -1.15044
