20

C          1.11790       -0.02722       -0.02554
C          2.63476       -0.08143        0.05286
C          3.23082        1.09078        0.84713
N          4.44407        0.52869        1.42320
C          5.64894        1.32441        1.45473
C          4.42645       -0.84037        1.38021
N          5.32338       -1.65815        1.79570
C          3.14547       -1.34068        0.76335
H          0.78868        0.89705       -0.51143
H          0.66416       -0.06426        0.97088
H          0.73104       -0.87281       -0.60349
H          3.04884       -0.05994       -0.96405
H          2.56597        1.41533        1.65559
H          3.42755        1.94633        0.19192
H          5.42656        2.39357        1.37478
H          6.30977        1.05143        0.62524
H          6.18630        1.16828        2.39523
H          6.08882       -1.12518        2.21207
H          2.47669       -1.68518        1.55771
H          3.33863       -2.15787        0.06214
