18

C          1.17679       -0.04630        0.05580
O          2.60201       -0.02925        0.08125
C          3.14816       -0.80163       -0.91161
C          4.47181       -0.91964       -1.06292
N          5.22608       -1.64162       -1.99091
C          4.58054       -2.44837       -3.02957
C          6.61292       -1.62013       -1.96092
N          7.46779       -2.21220       -2.72189
H          0.81136        0.58699        0.86924
H          0.79805       -1.06236        0.21339
H          0.80070        0.35752       -0.89085
H          2.42704       -1.29457       -1.54541
H          5.09700       -0.37122       -0.35756
H          3.48853       -2.41992       -2.99507
H          4.87551       -3.49866       -2.92838
H          4.87751       -2.09216       -4.02219
H          7.01646       -0.99012       -1.14876
H          6.99981       -2.76722       -3.43738
