14

N          1.29926       -0.33934        0.12845
C          2.60176       -0.03456       -0.07881
C          3.17050        0.92352       -0.83291
C          2.55351        1.99775       -1.69231
C          1.05079        2.17974       -1.83381
O          0.16711        1.52507       -1.29819
C          4.69050        0.92352       -0.83291
N          5.95146        0.92352       -0.83291
H          1.02596       -1.06110        0.78319
H          0.56356        0.24481       -0.27995
H          3.24626       -0.72188        0.47345
H          2.92742        1.86630       -2.71556
H          2.92954        2.96787       -1.33776
H          0.77183        3.01467       -2.50557
