13

N          1.58186       -0.58864        0.70512
C          2.49833        0.03930       -0.08713
O          2.73682        1.23232        0.06179
C          3.13811       -0.78661       -1.09134
C          4.03443       -0.30357       -2.02533
O          4.47222       -1.29389       -2.84286
C          3.86214       -2.43491       -2.43757
C          3.03597       -2.18308       -1.36684
H          1.09321       -0.01987        1.38260
H          1.29275       -1.54442        0.57168
H          4.43762        0.68103       -2.22328
H          4.11513       -3.32442       -2.99802
H          2.44064       -2.92287       -0.85239
