13

O          1.02280       -0.23759        0.33300
C          2.23901       -0.14509        0.15250
C          3.17273       -1.31162        0.39043
O          4.30972       -1.19517       -0.45433
N          5.35008       -0.53689        0.21933
C          5.18703        0.74578        0.23609
C          4.05981        1.55583       -0.28356
C          2.77818        1.17024       -0.29143
H          2.65293       -2.23280        0.11212
H          3.44631       -1.36404        1.45037
H          5.99226        1.34523        0.69446
H          4.32862        2.55485       -0.61100
H          2.01138        1.85867       -0.63569
