21

C          2.79045        0.67352       -0.99330
O          2.20811        0.03794        0.13677
C          2.75928        0.49077        1.37208
C          2.40267        1.93612        1.71203
N          2.51213        1.97816        3.16936
C          1.89076        0.73570        3.63268
C          2.12814       -0.29901        2.52828
C          3.02410       -1.44640        2.98280
H          2.43350        0.16555       -1.89353
H          3.88196        0.60340       -0.96352
H          2.47980        1.72092       -1.04493
H          3.84916        0.35434        1.36317
H          1.38728        2.18613        1.38094
H          3.09292        2.64367        1.24283
H          2.02078        2.78718        3.54547
H          0.81301        0.89223        3.76288
H          2.30301        0.43641        4.60114
H          1.16484       -0.72396        2.21744
H          3.99550       -1.08187        3.33329
H          3.20057       -2.14830        2.16146
H          2.55525       -1.99815        3.80428
