20

C          1.20438        0.64140        0.00769
O          2.62384        0.51428       -0.13921
C          3.16981        0.40608       -1.37015
N          2.49539        0.28462       -2.45575
N          4.52141        0.44667       -1.29299
C          5.35863        0.82141       -2.41840
C          5.53760        2.33732       -2.43533
C          6.70767        0.11997       -2.29367
H          0.99177        0.87470        1.05451
H          0.71697       -0.30419       -0.24537
H          0.82245        1.46037       -0.60973
H          1.49690        0.24768       -2.27268
H          4.87170        0.69010       -0.37529
H          4.90120        0.50359       -3.36288
H          6.01715        2.69201       -1.51584
H          4.57076        2.84556       -2.51863
H          6.15706        2.64751       -3.28320
H          7.23029        0.41360       -1.37664
H          7.35174        0.36357       -3.14540
H          6.57872       -0.96759       -2.26769
