14

N          1.01168        0.30476       -0.33964
C          2.27188        0.00131        0.07268
O          3.27193        0.42162       -0.49292
C          2.31030       -0.87973        1.26185
C          3.43685       -1.31209        1.84530
N          4.70488       -1.00272        1.42871
C          5.83911       -1.46924        2.05645
O          5.87969       -2.20001        3.03947
H          0.90967        0.90328       -1.14900
H          0.17330       -0.03120        0.11115
H          1.35829       -1.18819        1.67757
H          3.37472       -1.95980        2.71838
H          4.80294       -0.39628        0.61206
H          6.75341       -1.10153        1.56183
