13

O          1.39018        0.55453        0.51432
C          2.23753       -0.10200       -0.08168
N          3.04514        0.33423       -1.12293
C          2.96408        1.62939       -1.61326
C          3.74220        2.05698       -2.61637
O          4.67468        1.24928       -3.23283
C          4.75176       -0.03828       -2.74424
C          3.98085       -0.48159       -1.74147
H          2.42959       -1.15473        0.18690
H          2.23615        2.28502       -1.14310
H          3.72394        3.05072       -3.03781
H          5.49618       -0.62172       -3.26505
H          4.06876       -1.50184       -1.38239
