20

C          0.77648        0.04536        0.06745
C          2.28005       -0.07028        0.10014
C          2.93867        0.03405        1.46765
N          2.41382       -0.92804        2.44757
C          2.87883       -2.29949        2.29982
C          3.45173       -1.40490        3.36491
C          2.97594       -0.85121       -1.00058
N          3.01073        0.60345       -1.00435
H          0.30655       -0.66245        0.75706
H          0.37502       -0.16384       -0.93131
H          0.46677        1.05795        0.34613
H          2.74317        1.03886        1.86048
H          4.03033       -0.03805        1.35549
H          3.49134       -2.55415        1.44486
H          2.18632       -3.07104        2.61692
H          4.47320       -1.06157        3.24288
H          3.14352       -1.55950        4.39149
H          2.39028       -1.31674       -1.78247
H          3.91556       -1.34252       -0.78085
H          2.35557        0.99367       -1.68134
