19

N          1.01494       -0.03718        0.15522
C          2.48452       -0.04370        0.09952
C          2.98738       -1.52423        0.26879
O          2.57207       -2.15115        1.48631
C          2.88856        0.57730       -1.22495
C          3.56517        0.01487       -2.23991
C          3.05817        0.80380        1.22804
C          2.38796        1.46297        2.18762
H          0.65507       -0.71151       -0.51880
H          0.66984        0.87489       -0.13381
H          4.08246       -1.56702        0.24086
H          2.61123       -2.15560       -0.54645
H          2.38442       -1.43606        2.12129
H          2.60857        1.62741       -1.35117
H          3.90176       -1.01847       -2.22625
H          3.79491        0.58852       -3.13321
H          4.14605        0.86607        1.24570
H          1.30355        1.44422        2.24908
H          2.91576        2.03392        2.94452
