14

O          2.77686       -1.22707       -0.16404
C          2.37906        0.03410        0.08031
O          1.63117        0.71033       -0.59645
C          3.05600        0.56022        1.35031
N          3.89260       -0.22959        1.98680
C          4.36162        0.63621        3.11852
C          3.95511        2.07647        2.76559
N          2.88135        1.82891        1.83795
H          3.39871       -1.48100        0.56141
H          5.44557        0.54700        3.24488
H          3.87135        0.30202        4.04003
H          4.77702        2.59964        2.26486
H          3.63672        2.64832        3.64122
H          2.62662        2.54490        1.16278
