15

O          1.95555       -0.16919        1.28490
N          2.41445       -0.03597       -0.03785
C          3.09421       -1.18324       -0.63803
C          2.12536       -2.20820       -1.22875
C          2.85187       -3.33384       -1.83879
C          3.44666       -4.24597       -2.34270
C          2.05793        1.10261       -0.70563
O          2.28532        1.33475       -1.88698
H          2.47161       -0.90755        1.65319
H          3.73254       -1.64265        0.12474
H          3.74712       -0.80383       -1.43245
H          1.48384       -1.72890       -1.98177
H          1.45656       -2.58084       -0.44508
H          3.97595       -5.05270       -2.79931
H          1.53617        1.82773       -0.05883
