13

O          0.92211       -0.05360        0.01832
C          2.35936        0.12723       -0.06234
C          3.03476        1.17995        0.86996
N          3.99848        0.13446        1.24693
C          3.23549       -0.87998        0.74357
O          3.29870       -2.06613        0.96148
C          2.29555        1.62818        2.03034
C          1.67833        1.97871        2.99937
H          0.54579        0.72677       -0.42203
H          2.67237        0.19411       -1.11161
H          3.52182        1.99307        0.32051
H          4.41868       -0.02648        2.15137
H          1.12202        2.26844        3.86122
