13

C          1.13548        0.19629       -0.09268
C          2.46509        0.13096        0.06795
S          3.18482        0.77256        1.51964
O          2.87804        2.18934        1.59179
O          2.86818       -0.12619        2.61376
O          4.77430        0.58697        1.11251
N          5.67909        1.02584        2.10848
C          6.88535        0.84685        1.69429
H          0.65956       -0.19932       -0.98371
H          0.49258        0.64620        0.66089
H          3.11742       -0.31442       -0.66794
H          7.73180        1.13187        2.33875
H          7.12980        0.41519        0.70939
