17

C          1.01078       -0.03139        0.03027
C          2.49943       -0.06197        0.03776
C          3.25147       -0.78701       -1.04503
N          3.17915        0.68641       -1.02523
S          4.67317        1.44195       -0.64341
C          4.14517        3.13266       -0.51631
O          5.11721        1.00604        0.66526
O          5.53568        1.31957       -1.80066
H          0.61995       -0.71208        0.79305
H          0.59555       -0.33696       -0.93587
H          0.64735        0.97572        0.25599
H          2.92484        0.02583        1.02790
H          2.72043       -1.20468       -1.88821
H          4.22148       -1.20782       -0.81785
H          3.43407        3.22218        0.30712
H          3.69483        3.43893       -1.46193
H          5.02720        3.74393       -0.31146
