16

O          1.33207       -0.46540       -0.56328
C          2.49476        0.09588        0.01135
C          2.97142        1.36064       -0.68876
C          1.91989        2.31501       -1.23929
O          1.81865        3.46197       -0.40630
N          4.25193        1.60072       -0.69063
N          4.62339        2.81141       -1.28271
C          5.90329        2.89477       -1.39076
H          0.94002       -1.05510        0.10548
H          3.28822       -0.65746       -0.02124
H          2.29252        0.34964        1.05701
H          0.93664        1.84006       -1.26927
H          2.17983        2.60973       -2.26283
H          2.74374        3.72523       -0.23204
H          6.35365        3.78063       -1.86680
H          6.58833        2.10558       -1.03825
