19

C          1.07839        0.07359        0.09587
C          2.60576       -0.02523       -0.00221
C          3.12898       -1.26027       -0.79470
N          2.25370       -2.41861       -0.87975
C          3.43264       -0.69448       -2.14592
C          3.47054        0.64374       -2.12750
C          3.14404        1.13982       -0.81133
C          3.31955        2.39841       -0.39574
H          0.66981       -0.75633        0.68189
H          0.60139        0.06048       -0.89151
H          0.77794        1.00181        0.59430
H          3.02542       -0.03345        1.01101
H          4.07783       -1.59219       -0.35338
H          1.37677       -2.14870       -1.32076
H          2.01454       -2.72688        0.06101
H          3.67636       -1.30210       -3.00657
H          3.73892        1.27102       -2.96589
H          3.72945        3.16159       -1.05028
H          3.06615        2.69220        0.61688
