19

N          3.27424        0.25443       -0.92731
C          2.37930       -0.08181        0.18308
C          2.64052        0.70923        1.47862
C          2.50588        2.22112        1.26140
C          2.62528        2.97201        2.58195
C          1.86223        2.27758        3.65940
C          1.45871        1.01019        3.52788
O          1.70662        0.20195        2.45541
H          3.05607       -0.34916       -1.72011
H          4.23587        0.04293       -0.66664
H          2.46121       -1.15493        0.39260
H          1.34158        0.07921       -0.13672
H          3.65342        0.47827        1.84065
H          1.52297        2.43940        0.82199
H          3.26440        2.59013        0.56234
H          2.24527        3.99180        2.45525
H          3.67508        3.04980        2.88688
H          1.61014        2.83433        4.55517
H          0.86362        0.49071        4.27011
