10

O          2.59490        1.18685        0.15916
N          2.26736       -0.00827        0.08005
O          1.42295       -0.46296       -0.70783
C          2.91722       -0.95660        0.97544
N          3.84597       -0.56432        1.86616
N          4.15035       -1.73739        2.44983
C          3.42649       -2.76045        1.91616
N          2.63156       -2.30324        0.97586
H          4.84588       -1.76237        3.18889
H          3.51951       -3.78672        2.24447
