19

O          2.17482       -0.06215       -1.52863
C          3.03074        0.25897       -0.40658
C          3.57651       -1.16817        0.10529
C          4.92217       -0.57094        0.44157
C          4.55174        0.61202       -0.48126
N          4.87005        1.77586        0.37510
C          3.61964        2.35258        0.80791
C          2.57645        1.67019       -0.03444
H          1.33593       -0.39034       -1.11529
H          3.68576       -1.86757       -0.74196
H          3.05942       -1.71079        0.89570
H          5.00326       -0.37300        1.52168
H          5.80795       -1.13709        0.14045
H          5.01353        0.62871       -1.49760
H          5.50707        2.46779        0.00546
H          3.60896        3.43696        0.63873
H          3.43310        2.18884        1.87591
H          2.53413        2.24577       -0.97752
H          1.56945        1.72960        0.39018
