18

C          1.23029        0.33799       -2.82755
O          2.64357        0.43812       -2.62982
C          3.16612        0.50673       -1.38674
N          2.47742        0.54333       -0.30252
N          4.51609        0.53602       -1.36150
C          5.36725        0.86053       -2.47321
C          6.25094        1.99537       -2.05551
C          7.58951        1.97748       -2.10836
H          1.05540        0.15855       -3.89226
H          0.74900        1.27894       -2.54811
H          0.81609       -0.50356       -2.26500
H          1.47962        0.53107       -0.50039
H          4.91816        0.60074       -0.43514
H          4.80100        1.17407       -3.35660
H          5.95244       -0.02249       -2.75284
H          5.74835        2.89407       -1.70388
H          8.13512        1.10931       -2.46470
H          8.16790        2.84317       -1.80065
