16

O          1.01126       -0.29524        0.37050
C          2.37152       -0.04546        0.00552
C          3.00874        0.96819        0.97534
N          2.29309        2.25544        0.93245
N          2.70551        3.29927        0.16312
C          3.97308        3.32935       -0.10898
C          4.97264        2.29265        0.22823
C          4.47980        1.14710        0.71414
H          0.64384       -0.89255       -0.30405
H          2.39230        0.32081       -1.02701
H          2.90639       -1.00100        0.04621
H          2.88666        0.58817        1.99711
H          1.28840        2.08429        0.83125
H          4.36774        4.18835       -0.67560
H          6.01839        2.47566        0.02996
H          5.14323        0.32133        0.94563
