19

N          1.00198       -0.19482        0.29146
C          2.39829        0.16449        0.02349
C          3.05360        0.97942        1.17026
O          2.40437        2.24380        1.38974
C          2.75545        3.26520        0.45673
C          4.26060        3.54771        0.41955
C          5.08846        2.31540        0.58187
C          4.53231        1.14528        0.92345
H          0.58151       -0.57522       -0.55542
H          0.48935        0.65673        0.52075
H          2.42870        0.73537       -0.91231
H          2.96078       -0.76256       -0.14141
H          2.93364        0.41734        2.10604
H          2.23110        4.17995        0.76127
H          2.37326        3.00228       -0.53716
H          4.52534        4.24022        1.22718
H          4.50875        4.04512       -0.52560
H          6.16175        2.38842        0.43420
H          5.15133        0.26346        1.03900
