17

C          0.90092       -0.06052        0.07936
C          2.42068       -0.05020        0.04840
N          2.93258        0.94101        0.98611
C          4.26612        1.10858        1.18206
C          4.80014        2.30015        1.61843
S          6.50614        2.23742        1.75775
C          6.53526        0.59984        1.26502
C          5.27201        0.11929        0.99255
H          0.51111       -0.78198       -0.64536
H          0.49329        0.92595       -0.16780
H          0.53176       -0.33729        1.07191
H          2.76025        0.19086       -0.96549
H          2.78226       -1.05222        0.30381
H          2.33716        1.76384        1.06263
H          4.28008        3.21684        1.85546
H          7.47356        0.06748        1.20206
H          5.09489       -0.90094        0.67945
