14

O          1.26574       -2.11265        1.81247
N          2.66638       -1.94128        1.78468
C          3.17586       -0.91507        1.03729
S          2.30311        0.27126        0.24924
N          4.54107       -0.83997        0.98564
C          5.47390       -1.46387        1.90034
C          5.80730       -2.82322        1.46536
C          6.08755       -3.93906        1.12617
H          1.14997       -3.07833        1.84255
H          3.21887       -2.79071        1.83968
H          4.88497       -0.05252        0.44903
H          5.03759       -1.47189        2.90460
H          6.37116       -0.83855        1.92646
H          6.34780       -4.92935        0.82544
