17

C          1.19420       -0.00675       -0.08028
O          2.62144        0.04465       -0.07249
C          3.12934        0.93428        0.81814
O          2.46529        1.64339        1.56025
N          4.49419        0.90463        0.75535
C          5.33431        1.72116        1.56390
C          6.83108        1.66242        1.43057
C          6.08411        2.87516        0.95877
H          0.88467       -0.73603       -0.83376
H          0.77490        0.96793       -0.35006
H          0.81750       -0.33507        0.89388
H          4.89068        0.25290        0.09296
H          4.94717        1.86626        2.57153
H          7.26652        1.01299        0.68115
H          7.42042        1.75096        2.33637
H          6.00133        3.04151       -0.10874
H          6.15866        3.78459        1.54392
