19

N          1.00071        0.47268       -1.74868
C          2.46005        0.49289       -1.78576
C          3.01880       -0.73027       -1.05920
C          4.55327       -0.78651       -1.08966
C          5.09001       -2.03333       -0.36854
O          5.53070       -1.63535        0.94900
C          5.68976       -0.27139        0.82928
C          5.19510        0.27954       -0.27216
H          0.63882        1.30430       -2.21417
H          0.68400        0.53051       -0.78117
H          2.81435        1.41971       -1.32362
H          2.78922        0.49187       -2.83048
H          2.62453       -1.63944       -1.53247
H          2.66120       -0.73873       -0.02025
H          4.90741       -0.77389       -2.12662
H          5.96123       -2.44224       -0.89636
H          4.34781       -2.83273       -0.27263
H          6.16991        0.20612        1.66691
H          5.22044        1.33195       -0.51093
