14

O          2.02111       -0.49415       -1.26013
C          2.53040       -0.04225       -0.24020
N          2.82949        1.30044       -0.09984
C          3.40461        1.86668        1.00978
C          3.71384        1.11994        2.07941
C          3.45967       -0.31912        2.14922
N          4.22181       -1.17515        1.25067
C          2.80333       -0.92510        0.93135
H          2.63397        1.87016       -0.91364
H          3.60699        2.93124        0.96407
H          4.18470        1.59030        2.93750
H          3.20975       -0.72195        3.12384
H          4.33106       -2.11245        1.63668
H          2.12589       -1.75876        1.06482
