20

C          0.76797        0.08902       -0.13889
C          2.24612        0.17292        0.01414
C          3.01555        1.23766       -0.24825
C          4.41869        0.95351        0.10942
C          5.29196        0.24689       -0.95911
C          5.66462       -0.79614        0.11330
C          4.39252       -0.39070        0.89006
C          3.02612       -1.00136        0.54605
H          0.32804        1.07254       -0.33453
H          0.31235       -0.29715        0.77871
H          0.50336       -0.57724       -0.96502
H          2.66868        2.18971       -0.62707
H          4.92214        1.77160        0.63481
H          6.13087        0.83286       -1.34522
H          4.74662       -0.18190       -1.80862
H          5.71441       -1.83514       -0.22096
H          6.58917       -0.55417        0.65155
H          4.53620       -0.28343        1.97196
H          2.55664       -1.42297        1.43902
H          3.10663       -1.78209       -0.21865
