19

N          1.02393       -0.03821       -0.00409
C          2.47362       -0.09189        0.12035
C          3.10428        0.99499        0.98048
O          4.39083        0.48013        1.34526
C          4.24702       -0.95141        1.49475
C          5.48977       -1.63693        0.93191
O          6.64395       -1.20114        1.64784
C          2.95159       -1.36183        0.80117
H          0.74131        0.85838       -0.40058
H          0.58627       -0.08479        0.91566
H          2.91758       -0.04903       -0.88269
H          2.53664        1.17614        1.90093
H          3.21976        1.94324        0.44718
H          4.18170       -1.14641        2.57175
H          5.64115       -1.38247       -0.12135
H          5.41773       -2.72370        1.03028
H          6.56802       -0.22797        1.69463
H          2.23761       -1.70738        1.55933
H          3.08105       -2.18654        0.09190
