16

O          1.39970       -0.81672        0.63681
C          2.20453       -0.10891        0.04718
N          3.30254        0.54047        0.58436
C          3.89761        0.05318        1.79628
C          5.31998        0.34566        2.13856
N          5.26871        1.70347        2.70612
C          4.14985        2.41679        2.06973
C          3.17257        1.32723        1.77140
H          2.12675        0.09591       -1.03610
H          3.45966       -0.81175        2.27243
H          5.95348        0.31829        1.24607
H          5.71307       -0.35664        2.87905
H          6.14541        2.19205        2.54062
H          4.47948        2.91345        1.14980
H          3.73661        3.16474        2.75120
H          2.19769        1.41387        2.22499
