19

C          0.90556       -0.02992       -0.02433
C          2.41764        0.08367        0.06549
C          3.07200        1.16486        0.98542
C          4.05824        0.02210        1.35058
N          3.01214       -0.95496        0.95351
C          3.58807       -2.04622        0.17772
C          2.28621        1.69006        2.09321
C          1.63364        2.09969        3.01415
H          0.49381        0.82152       -0.57619
H          0.42752       -0.05758        0.96016
H          0.61658       -0.94087       -0.55974
H          2.84732        0.11395       -0.94838
H          3.54661        1.97549        0.41811
H          4.36330       -0.04084        2.40015
H          4.96702        0.02772        0.73264
H          4.13677       -2.72216        0.84219
H          4.27412       -1.71462       -0.61063
H          2.79103       -2.63186       -0.29297
H          1.04775        2.43765        3.83827
