14

O          0.86418       -0.05126        0.00636
C          2.19704       -0.04538        0.00065
C          3.09380        1.01673       -0.00013
C          2.69468        2.39872        0.00762
C          3.51132        3.46214        0.00507
C          4.45117        0.55309       -0.00918
C          4.54262       -0.81950       -0.01363
S          3.00768       -1.55561       -0.00712
H          0.55667        0.86660        0.00480
H          1.63100        2.62258        0.01715
H          4.59202        3.37777       -0.00371
H          3.10169        4.46795        0.01209
H          5.32905        1.18646       -0.01197
H          5.43888       -1.42414       -0.02018
