19

N          1.48639       -0.31358        1.44867
C          2.13840        0.00768        0.17984
C          3.28012       -0.96210       -0.15744
C          2.80240       -2.40463       -0.41099
O          2.80251       -2.61037       -1.83785
C          3.73682       -1.67815       -2.42544
C          3.24838       -0.29875       -2.71918
C          3.98857       -0.58644       -1.43278
H          0.63361        0.23769        1.53042
H          2.08209       -0.01908        2.22280
H          2.52416        1.03219        0.22645
H          1.37425       -0.01108       -0.60696
H          3.99257       -0.96560        0.67654
H          1.80678       -2.62215       -0.01373
H          3.51085       -3.12197        0.01800
H          4.56621       -2.06933       -3.00200
H          2.17764       -0.13803       -2.71329
H          3.76642        0.26613       -3.48613
H          4.99829       -0.22487       -1.30152
