14

C          1.02358       -0.06469        0.03154
C          2.50855       -0.09932        0.03689
C          3.36800        0.98239        0.03883
N          4.65629        0.51261        0.04455
C          4.64379       -0.85758        0.04642
C          3.32670       -1.26537        0.04131
C          5.81628       -1.66073        0.05287
N          6.78872       -2.29272        0.05834
H          0.64911        0.96398        0.03001
H          0.62761       -0.56961        0.91844
H          0.63389       -0.57007       -0.85784
H          3.17158        2.04709        0.03680
H          5.48893        1.08862        0.04729
H          2.98276       -2.29301        0.04117
