18

C          0.99221        0.55904       -2.41099
O          2.40607        0.48726       -2.29037
C          2.85553        0.99845       -1.03259
C          4.38207        0.94255       -0.97807
O          4.91407        1.86909       -1.94758
C          6.23963        2.06177       -2.07449
N          7.09123        1.45053       -1.22703
N          6.64534        2.82882       -3.01868
H          0.71431        0.22245       -3.41347
H          0.64201        1.58745       -2.27908
H          0.51768       -0.09816       -1.67651
H          2.43759        0.38449       -0.22912
H          2.51414        2.03529       -0.92100
H          4.72661       -0.06637       -1.23442
H          4.72283        1.22632        0.02284
H          6.83125        0.54150       -0.88287
H          8.03747        1.47496       -1.59301
H          5.79651        3.14758       -3.49999
