11

O          1.47432        0.71301       -0.38811
N          2.73796        0.24192       -0.15150
C          3.88521        0.79045       -0.60909
C          4.88376        0.00943       -0.07363
C          4.21667       -0.94330        0.71769
N          2.88665       -0.76864        0.70067
C          6.28594        0.16135       -0.28492
N          7.42385        0.28861       -0.45855
H          1.15327        0.61657        0.52302
H          3.88330        1.65062       -1.26014
H          4.63788       -1.74841        1.31169
