16

C          1.08141        0.43062       -0.13949
C          2.54520        0.05765        0.04080
C          2.95135       -1.01806       -0.91679
N          3.44899       -0.79083       -2.11407
C          3.67457       -1.99773       -2.74945
C          3.34102       -3.13285       -2.03794
N          3.42242       -4.42599       -2.41652
S          2.76022       -2.67383       -0.49382
H          0.80045        1.22023        0.56438
H          0.42563       -0.42890        0.03743
H          0.88902        0.79476       -1.15454
H          2.72430       -0.25543        1.07605
H          3.16691        0.94440       -0.13152
H          4.08280       -1.99155       -3.75207
H          3.49991       -4.66440       -3.40048
H          2.93349       -5.12476       -1.86417
