16

N          1.20014        0.05188        0.20759
C          2.54303       -0.06644        0.01281
S          3.08212       -0.88049       -1.33607
N          3.28818        0.53721        0.99995
C          4.65886        0.58076        1.08538
C          5.29685        1.20092        2.08571
C          6.78476        1.24341        2.20005
O          7.19569        2.60005        2.18308
H          0.58099       -0.38300       -0.46686
H          0.78364        0.48292        1.01833
H          2.76914        0.99548        1.73629
H          5.21952        0.08418        0.29739
H          4.74585        1.69725        2.87984
H          7.28859        0.71231        1.38580
H          7.10182        0.79720        3.14708
H          6.99237        2.94159        1.29513
