13

N          1.05977        0.07749       -0.20130
C          2.43160        0.13227        0.01144
C          3.13170        1.27384        0.07826
C          4.55027        1.27210        0.28768
C          5.17992        0.10425        0.41183
O          4.52407       -1.13184        0.36886
C          3.16465       -1.17821        0.20025
O          2.54010       -2.23785        0.22438
H          0.55186        0.86370        0.19097
H          0.68341       -0.82946        0.08746
H          2.64435        2.23465       -0.05254
H          5.08529        2.21462        0.32673
H          6.24268       -0.02706        0.56113
