14

C          0.89619       -0.02086        0.26605
C          2.22418        0.03664        0.95373
C          3.43862        0.06041        0.37905
C          3.65967        0.03084       -1.02858
N          2.76942       -0.08508       -1.99957
N          3.32348       -0.06386       -3.26231
C          4.62849        0.06573       -3.21613
S          5.28174        0.16148       -1.63875
H          0.09503        0.00834        1.01214
H          0.78401       -0.95162       -0.29768
H          0.75469        0.83828       -0.39654
H          2.17990        0.06621        2.04101
H          4.30897        0.10887        1.02898
H          5.23948        0.10776       -4.10575
