16

O          3.04355        1.23637        0.15024
C          2.27233        0.04254       -0.02827
C          3.12125       -1.19204        0.32886
N          4.24943       -1.29525       -0.58248
C          4.28002       -2.26681       -1.53881
N          3.50374       -3.29478       -1.63364
C          2.54975       -3.39764       -0.65699
C          2.31950       -2.45704        0.26815
H          2.44818        1.98455       -0.03252
H          1.93783        0.01065       -1.07185
H          1.39376        0.10879        0.62195
H          3.52657       -1.06890        1.33941
H          4.72542       -0.41691       -0.76067
H          5.07936       -2.11216       -2.28315
H          1.95939       -4.31019       -0.67293
H          1.54388       -2.60879        1.01011
