20

N          1.19990        0.08438        0.40839
C          2.59276       -0.37112        0.29971
C          2.71248       -1.72755       -0.39929
N          2.57905       -1.40874       -1.82811
C          3.35509       -0.15678       -2.00906
C          2.75177        0.71782       -3.11957
O          1.39684        1.05355       -2.81529
C          3.37870        0.54035       -0.63888
H          0.62517       -0.66156        0.79716
H          0.83607        0.26443       -0.53133
H          3.03427       -0.39551        1.30094
H          1.95533       -2.44825       -0.07413
H          3.69847       -2.17132       -0.21403
H          1.59913       -1.16693       -2.00632
H          4.37992       -0.42197       -2.29557
H          2.76361        0.18538       -4.07693
H          3.32785        1.64306       -3.22953
H          1.10352        1.66703       -3.51387
H          2.98853        1.56446       -0.65993
H          4.41649        0.60325       -0.28781
