21

N          2.79422       -1.48853        1.60016
C          2.39024       -1.95403        0.27255
C          2.97509       -1.07591       -0.83652
C          4.50586       -1.12843       -0.88095
O          5.06062       -0.55888        0.32945
C          5.13470       -2.48457       -1.31914
C          6.15459       -1.67344       -2.14079
C          5.11918       -0.53408       -2.18513
H          2.30518       -2.03981        2.30797
H          2.46628       -0.52811        1.73124
H          1.29680       -1.93607        0.20891
H          2.71184       -2.99320        0.14888
H          2.64085       -0.03847       -0.71222
H          2.56179       -1.42143       -1.79443
H          4.56027       -1.00047        1.05135
H          4.47762       -3.11451       -1.93012
H          5.56339       -3.09377       -0.51900
H          6.43670       -2.09855       -3.10682
H          7.06403       -1.41903       -1.58404
H          4.46068       -0.56924       -3.06088
H          5.53524        0.47369       -2.10036
