21

N          2.84007       -1.30702       -0.40601
C          2.41123        0.06269       -0.06974
C          0.87424        0.16487       -0.14039
O          0.41251       -0.21491       -1.43800
C          2.92513        0.50937        1.31033
C          4.42791        0.52781        1.39252
C          5.10439        0.94384        2.67378
C          5.15910       -0.49039        2.22975
H          2.29479       -1.61481       -1.21612
H          2.56366       -1.93901        0.34561
H          2.83437        0.71669       -0.84361
H          0.53736        1.18816        0.05644
H          0.39885       -0.49851        0.59031
H          0.86058        0.36103       -2.08219
H          2.50327       -0.12934        2.09637
H          2.56425        1.52678        1.50679
H          4.89255        0.85472        0.46829
H          4.49014        1.18618        3.53320
H          6.01257        1.53171        2.59851
H          4.58370       -1.21798        2.79011
H          6.09770       -0.87365        1.84563
