19

C          0.89163        0.08151        0.05014
C          2.40365        0.03700        0.00934
C          3.17651        1.07328        0.85402
N          4.16348        0.01132        1.21407
C          3.09996       -0.99980        0.91455
N          5.20840       -0.07031        0.25422
C          6.24155       -0.92468        0.54412
N          6.31322       -1.78333        1.49984
H          0.51724        0.94211       -0.51327
H          0.51569        0.15632        1.07528
H          0.47073       -0.82311       -0.40006
H          2.76127       -0.00610       -1.03122
H          2.62754        1.44990        1.72655
H          3.57109        1.93734        0.30887
H          2.52855       -1.28468        1.80717
H          3.42686       -1.91851        0.41603
H          5.48971        0.79875       -0.19462
H          7.07744       -0.82729       -0.16899
H          5.44198       -1.67338        2.03591
