14

C          1.29227        0.21769        0.04131
C          2.75370       -0.06290        0.05743
N          3.68930        0.86298        0.03016
C          4.91471        0.25163        0.06836
O          6.04632        0.97310        0.04592
C          4.92830       -1.13081        0.12233
N          5.98831       -1.96966        0.17184
S          3.30996       -1.69073        0.11296
H          1.11031        1.29709        0.03290
H          0.80594       -0.19829        0.92943
H          0.82377       -0.21032       -0.85049
H          5.75948        1.90153        0.02277
H          6.90963       -1.59297       -0.03727
H          5.86576       -2.95011       -0.05477
