16

O          2.41625        1.02265       -0.05201
C          2.14583       -0.17075       -0.04847
N          2.80595       -1.15368       -0.76147
C          3.92556       -0.76534       -1.57991
C          4.51120       -1.85310       -2.45104
C          4.11911       -3.27916       -2.12594
N          3.03974       -3.45743       -1.16841
C          2.48591       -2.46421       -0.58810
H          1.31847       -0.56034        0.56846
H          4.69565       -0.36090       -0.91042
H          3.61011        0.07667       -2.21271
H          5.60824       -1.77059       -2.43185
H          4.24533       -1.64719       -3.49698
H          4.99576       -3.82736       -1.76093
H          3.82568       -3.77933       -3.05804
H          1.66281       -2.65062        0.12034
