12

O          1.02412       -0.22915        0.36590
C          2.21198       -0.19041        0.06445
C          3.15308       -1.34978        0.19773
O          4.25870       -1.29056       -0.68553
C          5.19524       -0.46125       -0.18261
N          5.03554        0.79341        0.05984
N          3.97551        1.49562       -0.51338
C          2.74844        1.08533       -0.48548
H          2.60129       -2.26771       -0.03171
H          3.48360       -1.41487        1.24314
H          6.11672       -1.00686        0.06912
H          1.97364        1.73617       -0.92166
