16

C          1.13013        0.04786        0.05671
O          2.54588       -0.01064        0.17073
N          3.11056        0.60104       -0.96413
C          4.40393        0.53056       -0.92705
N          5.13191       -0.06459        0.07313
C          5.19574        1.15222       -2.08925
C          4.44452        1.74533       -3.24713
O          6.42102        1.14069       -2.02722
H          0.69441       -0.41064        0.94783
H          0.79864       -0.50876       -0.82512
H          0.79574        1.08800       -0.00476
H          4.64197       -0.34923        0.91027
H          6.13945        0.06707        0.09443
H          3.36293        1.68093       -3.12796
H          4.71837        1.20314       -4.16083
H          4.71461        2.79393       -3.34686
