20

C          0.97090        0.24194       -0.01054
O          2.36839        0.10614       -0.23267
C          2.72605       -1.10601       -0.92635
C          2.21203       -1.09550       -2.38918
N          2.53646       -2.29924       -3.15980
C          4.23439       -1.26093       -0.87196
C          5.16345       -0.16397       -1.32970
N          5.02327       -0.47471        0.08929
H          0.82097        0.96816        0.79285
H          0.51249       -0.70615        0.28679
H          0.48751        0.63077       -0.91137
H          2.29030       -1.95542       -0.38380
H          2.60252       -0.21391       -2.91146
H          1.12232       -0.98784       -2.38989
H          3.54624       -2.35802       -3.29098
H          2.14191       -2.21041       -4.09679
H          4.55232       -2.28888       -1.00324
H          4.75423        0.78378       -1.65471
H          6.10583       -0.44780       -1.78188
H          4.38552        0.19227        0.54225
