13

Cl         0.97970       -0.08429        0.08591
C          2.67918        0.02757        0.08532
C          3.46310        1.17909        0.08138
O          4.78327        0.76659        0.08268
C          4.81287       -0.58743        0.08720
C          3.53961       -1.09446        0.08900
C          3.06358        2.54615        0.07675
C          3.96370        3.53690        0.07387
H          5.79808       -1.03282        0.08862
H          3.26539       -2.13933        0.09251
H          2.00323        2.78153        0.07554
H          5.03323        3.34747        0.07497
H          3.64246        4.57334        0.07033
