17

N          1.46698       -0.16746        0.31934
C          2.85685        0.06221       -0.07940
C          3.68313       -1.11956       -0.52001
C          4.00057       -0.43718        0.78104
O          5.15020        0.42282        0.79369
C          4.71243        1.60632        0.12089
C          3.67902        2.45535        0.80940
C          3.27236        1.52462       -0.30562
H          1.27502       -1.15724        0.45561
H          0.83711        0.14278       -0.41953
H          4.36540       -0.98491       -1.35071
H          3.25806       -2.11428       -0.46463
H          3.75603       -0.95236        1.70154
H          5.41600        2.10839       -0.53285
H          3.67376        3.51859        0.60701
H          3.38354        2.19422        1.81913
H          3.00302        1.97251       -1.25518
