18

N          2.41392       -0.48709       -1.39320
C          2.36733       -0.02384       -0.11426
N          1.67530       -0.61880        0.79577
C          3.14213        1.22514        0.25562
C          4.64814        0.98125        0.22178
C          5.41866        2.24305        0.59838
C          6.91406        2.05026        0.52729
O          7.46637        1.02410        0.14577
H          2.17004       -1.45942       -1.53350
H          3.20255       -0.19401       -1.95989
H          1.18428       -1.41748        0.38893
H          2.83618        1.55061        1.25687
H          2.86715        2.01761       -0.44935
H          4.95375        0.64949       -0.77748
H          4.90966        0.16494        0.90662
H          5.17215        2.55228        1.61990
H          5.16324        3.06485       -0.07845
H          7.51163        2.92700        0.83171
