20

N          2.94740       -0.82142        1.08488
C          2.46210       -0.00930       -0.03471
C          2.92697       -0.57139       -1.38139
O          4.35373       -0.49241       -1.47564
C          4.91154       -1.01734       -2.70372
C          6.45471       -1.03255       -2.81373
N          6.34970       -2.33969       -3.50553
C          5.05484       -2.55512       -2.81920
H          2.75584       -0.33517        1.95911
H          3.96537       -0.87805        1.00559
H          2.84011        1.01160        0.08759
H          1.36838        0.02092       -0.00451
H          2.48998        0.02019       -2.19323
H          2.61045       -1.61403       -1.49606
H          4.44015       -0.55634       -3.58314
H          6.97981       -1.07991       -1.85218
H          6.89186       -0.23471       -3.42009
H          7.07752       -3.01032       -3.26289
H          5.14310       -3.07632       -1.85833
H          4.29604       -3.05487       -3.42715
