18

C          2.71464       -1.31791       -0.47906
O          2.53022       -0.09146        0.22017
C          2.91816        1.03579       -0.56041
C          2.43815        2.25810        0.17296
C          1.60699        3.18785       -0.31793
C          4.46957        1.13818       -0.66032
N          5.23450        0.59029        0.33194
N          5.06603        1.74001       -1.63905
H          2.58163       -2.13697        0.23190
H          3.72036       -1.39827       -0.90440
H          1.96970       -1.41506       -1.27346
H          2.48318        0.98005       -1.56676
H          2.80861        2.38494        1.18736
H          1.19069        3.12049       -1.31756
H          1.31290        4.04147        0.28762
H          4.77270        0.44170        1.22270
H          6.17571        0.96136        0.37311
H          4.37577        2.11211       -2.30120
