13

C          0.90312        0.03558        0.00388
C          2.39065        0.06682        0.00744
N          3.01296        1.24717        0.00729
S          4.65046        0.99468        0.01213
C          4.56860       -0.70492        0.01457
C          5.76143       -1.50475        0.01944
O          5.77420       -2.73373        0.02153
C          3.24264       -1.08455        0.01122
H          0.47589        1.04382        0.00438
H          0.53290       -0.48946        0.89030
H          0.53703       -0.48698       -0.88571
H          6.71908       -0.95503        0.02149
H          2.90640       -2.11400        0.01172
