15

C          1.11903        0.04693       -0.02883
O          2.54137        0.09215       -0.04691
N          3.02806       -1.11507        0.47607
C          4.31929       -1.08278        0.46185
C          5.11135       -2.22389        0.95589
C          6.44557       -2.15711        0.92604
C          7.23771       -3.29824        1.41999
O          8.46138       -3.27032        1.40714
H          0.73749        0.98691       -0.43571
H          0.75688       -0.06663        0.99761
H          0.75869       -0.77899       -0.64987
H          4.88006       -0.20893        0.08315
H          4.55425       -3.07674        1.32580
H          7.00525       -1.30620        0.55682
H          6.67189       -4.16680        1.79667
