13

O          1.22373        0.41233       -0.79099
C          2.27841        0.09530       -0.28777
C          2.88689       -1.23781        0.19448
C          3.98035       -0.38510        0.88156
O          3.80829       -0.09973        2.29830
N          3.43152        1.28136        2.45065
C          3.26620        1.81114        1.28145
C          3.53436        0.87196        0.11929
H          3.24787       -1.86517       -0.62636
H          2.24623       -1.81913        0.85989
H          5.00481       -0.71123        0.67834
H          2.98758        2.86222        1.11319
H          4.17113        1.22762       -0.68643
