12

N          1.41554       -0.03932        1.33325
C          2.47891       -0.05175        0.86961
C          3.77810       -0.07733        0.27008
C          3.99275        0.69301       -1.00198
O          5.34807        1.08408       -1.32511
N          6.05013       -0.10490       -1.70156
C          5.28356       -1.13261       -1.54575
C          3.95296       -0.80125       -1.04424
H          4.60456       -0.10120        0.97226
H          3.17724        1.24901       -1.44684
H          5.57533       -2.16891       -1.76878
H          3.10428       -1.27842       -1.51451
