18

C          2.67912        0.95038        2.55974
O          2.40135        0.43086        1.26459
C          2.99392        1.20108        0.23398
C          4.52237        1.25297        0.22461
C          5.26162       -0.06886        0.04689
N          6.13155       -0.31603        1.20442
N          5.09381        2.42247        0.32622
O          6.48825        2.33746        0.24499
H          2.01690        0.45507        3.27512
H          2.49318        2.02812        2.60318
H          3.71293        0.73337        2.84206
H          2.58833        2.21967        0.25875
H          2.68312        0.76129       -0.72029
H          5.85586       -0.01194       -0.87078
H          4.54661       -0.88997       -0.05462
H          6.66847        0.54412        1.35078
H          6.81643       -1.02593        0.95038
H          6.75981        3.27031        0.33843
