17

O          1.12390        0.10061        0.22118
N          2.51636       -0.01749        0.18472
C          2.88579       -1.14696        0.68561
C          2.06089       -2.26321        1.26683
C          2.89545       -3.50496        0.91642
C          4.32821       -3.03616        0.88981
C          4.92643       -2.40576       -0.33994
C          4.31358       -1.53294        0.71626
H          0.97132        0.91720       -0.28758
H          1.04835       -2.31797        0.86563
H          2.01782       -2.12037        2.35330
H          2.60766       -3.88199       -0.07297
H          2.73929       -4.30672        1.64332
H          4.96225       -3.46478        1.65220
H          4.40971       -2.49803       -1.28818
H          6.00725       -2.39998       -0.43113
H          4.96481       -0.93845        1.34474
