14

C          0.02133        0.92373       -0.03568
N         -0.73105       -0.29530        0.13816
C          0.73046       -0.41546        0.03908
C          1.48537       -0.79057        1.29738
C          1.11193       -0.50114        2.59180
S          2.29769       -1.13862        3.64999
N          3.27024       -1.77201        2.46001
C          2.70701       -1.51842        1.28109
H          0.06443        1.59428        0.81373
H         -0.04757        1.41402       -0.99904
H         -1.16955       -0.59568       -0.73372
H          1.12717       -0.80624       -0.89273
H          0.23616        0.01685        2.95527
H          3.22610       -1.87905        0.40247
