15

N          2.27983       -0.95272       -0.98667
C          2.60816       -0.00555       -0.06035
O          2.35690        1.17846       -0.25469
C          3.32609       -0.52331        1.17513
C          4.81382       -0.42772        0.98991
C          5.61064        0.29738        1.78839
C          7.07042        0.33454        1.56506
O          7.81274        0.96068        2.31144
H          1.81658       -0.64073       -1.83080
H          2.50899       -1.93154       -0.89076
H          3.04511       -1.56632        1.35704
H          2.97814        0.05795        2.03693
H          5.23303       -0.99057        0.15838
H          5.24215        0.87646        2.62728
H          7.44967       -0.23705        0.70248
