16

C          1.22252       -0.04090       -0.37129
C          2.60810        0.24275        0.10679
C          3.44858       -0.87731        0.64285
N          3.73008       -0.29847       -0.63473
C          4.68371        0.71748       -0.78420
S          6.03077        0.66573       -1.73768
N          4.28220        1.82919       -0.05465
C          2.95102        1.67002        0.47381
H          1.11349       -1.07020       -0.72996
H          0.94876        0.63097       -1.19130
H          0.50819        0.10791        0.44523
H          3.10075       -1.89864        0.57470
H          4.19058       -0.68296        1.40759
H          4.77119        2.71141       -0.13920
H          2.29598        2.39979       -0.00993
H          2.96968        1.83243        1.55459
