14

O          1.00060        0.15836        0.04861
C          2.20624        0.10681        0.02376
C          3.41465        1.15552        0.08115
C          4.14368       -0.00269        0.86630
C          3.37072       -1.00585       -0.06989
N          3.98461       -1.02619       -1.41901
C          4.24410        0.15986       -1.87178
N          4.07432        1.34206       -1.19081
H          3.25063        2.08155        0.63130
H          3.86798       -0.07172        1.92637
H          5.23661       -0.02503        0.80122
H          3.15244       -1.98943        0.34518
H          4.64568        0.29926       -2.88962
H          3.76687        2.13494       -1.74568
