20

C          1.08149        0.00294        0.13948
C          2.58831        0.04178       -0.07030
C          3.21285        1.09310        0.75479
C          3.70900        1.95209        1.43422
C          3.26765       -1.23018        0.37560
C          2.94003       -2.57057       -0.25130
C          4.24870       -1.90042       -0.56371
C          5.53474       -2.43763       -0.04154
H          0.62666        0.96170       -0.13425
H          0.82001       -0.20773        1.18233
H          0.62156       -0.77284       -0.48187
H          2.79394        0.23955       -1.12880
H          4.14649        2.71048        2.04213
H          3.45070       -1.26505        1.44699
H          2.19125       -2.61565       -1.03344
H          2.94641       -3.44217        0.39554
H          4.36870       -1.50025       -1.56502
H          5.43016       -2.86422        0.96078
H          6.27995       -1.63711        0.00294
H          5.91466       -3.21764       -0.70878
