19

N          1.45053       -0.53642       -0.51262
C          2.20510        0.23302        0.47721
C          3.61369       -0.29857        0.44471
C          4.72347        0.28856        1.28939
C          4.70976        0.53927       -0.18679
C          1.47931        0.14939        1.78961
C          1.25260       -1.16351        2.50225
O          2.23351       -0.21836        2.95048
H          1.75914       -0.26069       -1.44324
H          0.46344       -0.29954       -0.45535
H          2.20201        1.28496        0.16846
H          3.65179       -1.37873        0.31337
H          5.46883       -0.39623        1.68254
H          4.48439        1.10435        1.96170
H          5.44745        0.03669       -0.79916
H          4.48666        1.55097       -0.50993
H          0.73373        0.92442        1.89742
H          1.60451       -2.07418        2.03999
H          0.34938       -1.26468        3.08989
