20

C          0.92259        0.01552        0.01579
C          2.43482        0.11058       -0.00676
C          3.06722       -1.06151       -0.70318
N          4.10116       -0.77847       -1.42731
N          4.26143        0.55166       -1.28327
C          5.28153        1.28724       -1.99216
C          3.07051        1.25708       -0.81192
C          2.20037        1.79400       -1.95190
H          0.60718       -0.82046        0.65038
H          0.50350       -0.16972       -0.97942
H          0.47928        0.93050        0.42109
H          2.81461        0.11340        1.02212
H          2.69755       -2.08448       -0.54596
H          6.06596        0.61312       -2.35506
H          5.76502        1.99724       -1.31277
H          4.89334        1.83316       -2.85613
H          3.34023        2.08110       -0.14207
H          1.89020        1.00177       -2.64372
H          2.72763        2.55652       -2.53346
H          1.29499        2.26681       -1.55574
