17

N          1.15889        0.05784       -0.04562
C          2.62369        0.16633        0.04997
C          3.00948        1.45152        0.81248
C          4.45863        1.46629        1.17894
C          5.14461        0.32248        1.26970
O          4.61271       -0.92969        1.08069
C          3.29513       -1.06669        0.63842
C          2.72983       -2.28051        0.72415
H          0.78740        0.91381       -0.45203
H          0.77705        0.00513        0.89875
H          3.00391        0.26103       -0.97704
H          2.42000        1.56269        1.73134
H          2.78851        2.32205        0.18212
H          4.94222        2.41601        1.38065
H          6.18965        0.25868        1.54196
H          3.27733       -3.11985        1.13773
H          1.72467       -2.46658        0.36135
