20

C          1.33385       -0.15104        0.29295
C          2.88736        0.08931        0.25013
C          2.89989        1.62785        0.07647
C          4.12807        0.23932        1.31570
N          4.53382       -1.15007        1.09160
C          3.13587       -1.42085        0.81732
N          5.04273       -1.75348        2.19737
C          5.82085       -2.74034        1.92152
H          0.78251        0.57792       -0.31488
H          0.94901       -0.07904        1.31556
H          1.04546       -1.11801       -0.14221
H          2.32810        1.92451       -0.81282
H          2.42691        2.12260        0.93986
H          3.88150        2.08960       -0.08266
H          3.83113        0.50124        2.33951
H          4.97297        0.88916        1.04237
H          2.56205       -1.68485        1.72326
H          2.97947       -2.22945        0.09307
H          6.29386       -3.30029        2.74567
H          6.04674       -3.07863        0.89571
