17

C          0.95333       -0.00833       -0.21237
O          2.36898        0.06050       -0.07886
C          2.85253        1.40525        0.07287
C          2.34586        1.99963        1.37686
C          1.91124        2.50949        2.49543
C          4.35301        1.39546        0.21661
C          5.07322        0.59128        1.27592
N          5.11198        0.17464       -0.12209
H          0.68355       -1.03840       -0.45557
H          0.60237        0.64741       -1.01348
H          0.46096        0.25091        0.73131
H          2.55158        2.01184       -0.78824
H          1.55845        2.92263        3.41228
H          4.80595        2.32680       -0.10882
H          4.49931       -0.02992        1.95133
H          5.99618        0.98929        1.67695
H          4.43635       -0.58191       -0.28205
