15

N          1.56946        1.08649       -0.57282
C          2.50030        0.13326        0.02436
C          2.91390       -0.85325       -1.01967
C          3.58090       -0.53202       -2.19120
S          3.91574       -1.89457       -3.16831
C          3.18353       -2.94852       -2.03733
C          2.70030       -2.26271       -0.94864
O          2.08615       -2.87892        0.07967
H          1.19950        1.68373        0.16351
H          0.77349        0.56549       -0.93947
H          2.01965       -0.36331        0.87356
H          3.37938        0.66512        0.40387
H          3.87727        0.45490       -2.52142
H          3.15208       -4.00965       -2.23735
H          2.04955       -3.83958       -0.06827
