19

N          1.04531       -0.09699       -0.03723
C          2.50615       -0.01182       -0.04614
C          3.29652       -0.81030       -1.04074
C          3.21298        0.68256       -1.18279
O          4.41465        1.40138       -0.83158
C          4.23983        2.82246       -0.91382
C          5.52232        3.49684       -0.44546
O          6.61525        3.11311       -1.27791
H          0.73100       -0.76931        0.66357
H          0.68287       -0.43817       -0.92661
H          2.94981        0.11557        0.93985
H          2.77406       -1.41031       -1.77587
H          4.23930       -1.23577       -0.71656
H          2.61345        1.05594       -2.00810
H          3.39844        3.12770       -0.28369
H          4.03629        3.08279       -1.95820
H          5.76900        3.20378        0.57974
H          5.42547        4.58491       -0.49176
H          6.58568        2.13781       -1.31436
