15

C          1.04109        0.10624        0.16956
N          2.50742        0.11442        0.04865
C          3.19914       -0.69808       -0.87710
O          2.64236       -1.48381       -1.63051
S          3.34727        1.05418        1.16484
C          3.57328       -0.10736        2.49483
O          4.65712        1.33997        0.61953
O          2.47715        2.11227        1.63086
H          0.58763       -0.61388       -0.51776
H          0.64053        1.09337       -0.08156
H          0.73502       -0.16902        1.18249
H          4.29545       -0.58936       -0.85072
H          4.19031       -0.93536        2.13831
H          2.60065       -0.46223        2.83798
H          4.08720        0.40998        3.30799
