15

O          0.94838       -0.13922        0.23212
C          2.37932       -0.08808        0.34325
C          3.13343       -0.74161       -0.78532
C          4.50049       -1.30255       -0.59209
O          5.19664       -0.54324        0.40494
N          5.39658        0.81720        0.05069
C          4.35222        1.43195       -0.41623
C          3.06957        0.75402       -0.69632
H          0.58097       -0.85821        0.77580
H          2.80704       -0.10555        1.34150
H          2.57706       -1.24082       -1.56585
H          5.07410       -1.28749       -1.52537
H          4.43916       -2.33775       -0.24336
H          4.42477        2.50372       -0.66038
H          2.43554        1.26577       -1.41188
