15

C          1.01815        0.19772       -0.17491
C          2.54286        0.08312       -0.05067
C          3.08392       -1.14629       -0.77299
C          3.46993       -0.51432       -2.07233
N          3.50483        0.77823       -2.07579
N          3.20130        1.15737       -0.80882
C          2.92496        0.08312        1.42052
N          3.24195        0.08312        2.64099
H          0.69071        0.19557       -1.22104
H          0.64980        1.12128        0.28788
H          0.52037       -0.64007        0.32792
H          2.33852       -1.92750       -0.94440
H          3.98230       -1.58110       -0.32280
H          3.71824       -1.13203       -2.94684
H          2.71169        2.05303       -0.76818
