17

N          1.11584        0.00453       -0.02625
C          2.56821       -0.01727       -0.00756
C          3.07487       -0.71704       -1.25816
C          3.50948       -1.31731       -2.33093
C          3.98582       -1.89602       -3.56277
C          5.50010       -2.11886       -3.67474
C          5.10482       -3.52906       -4.10598
O          3.76342       -3.33533       -3.58660
H          0.77581        0.35612        0.86561
H          0.77621       -0.95322       -0.10668
H          2.92920       -0.55239        0.87664
H          2.95858        1.00455        0.02186
H          3.54355       -1.43562       -4.45454
H          6.05954       -2.08039       -2.73434
H          6.00984       -1.52008       -4.43315
H          5.63081       -4.34122       -3.59948
H          5.08884       -3.70543       -5.18645
