11

O          2.40189        1.27958        0.02518
C          2.24259        0.06829        0.11376
C          2.89574       -0.73295        1.13610
C          3.73649       -0.34830        2.10508
N          4.21555       -1.32650        2.95743
C          3.67112       -2.42003        2.54052
C          2.79008       -2.16432        1.35519
O          2.15499       -2.99363        0.74945
H          1.59039       -0.48820       -0.57928
H          4.05424        0.68016        2.25237
H          3.77535       -3.44072        2.93101
