14

C          1.06505       -0.17436        0.13605
N          2.42039        0.23278       -0.20165
N          3.11008       -0.59791       -1.03037
C          4.40918       -0.58301       -0.95673
O          5.14120       -1.40048       -1.79139
C          6.48056       -1.16788       -1.47166
C          6.79105       -0.29761       -0.51249
S          5.37305        0.39834        0.16403
H          0.62016        0.55251        0.82248
H          1.06095       -1.15374        0.62564
H          0.43642       -0.22107       -0.75826
H          2.94072        0.48534        0.64282
H          7.16200       -1.75218       -2.06949
H          7.79290       -0.04494       -0.19060
