21

C          1.07351        0.49238        1.66741
O          2.49091        0.57178        1.60385
C          2.92409        1.26707        0.43693
C          4.41727        1.23372        0.40245
C          5.16311        1.92689       -0.70802
C          5.23351        2.47545        0.69945
C          6.47604        2.36954        1.52102
N          7.50990        3.18036        0.89494
H          0.79967       -0.06578        2.56669
H          0.67720       -0.03752        0.79531
H          0.63783        1.49387        1.73027
H          2.54590        2.29533        0.46116
H          2.53109        0.76454       -0.45421
H          4.79996        0.26631        0.70953
H          4.60361        2.50083       -1.43760
H          6.03208        1.42558       -1.11769
H          4.71175        3.40722        0.89195
H          6.81930        1.33387        1.60879
H          6.28064        2.74433        2.53145
H          7.72843        2.78456       -0.01884
H          8.36479        3.10454        1.44268
