12

N          0.98780       -0.10387       -0.05889
C          2.35592       -0.01587        0.01148
O          2.85616        0.75697        0.82381
C          3.13912       -0.96216       -0.89600
C          2.77192       -0.74580       -2.35502
C          2.45693       -0.56021       -3.60657
C          4.63353       -0.75299       -0.71325
N          5.87327       -0.57948       -0.56164
H          0.46958        0.57083        0.49284
H          0.51084       -0.52544       -0.84533
H          2.89071       -1.99047       -0.60803
H          2.21368       -0.40433       -4.63348
