14

N          1.08890       -0.18258        0.37563
C          2.35529       -0.03347        0.18593
C          3.02030        1.31882        0.05378
S          4.46594        0.96724       -0.92296
O          5.62391        1.57519       -0.29343
O          4.14671        1.20183       -2.31899
C          4.44328       -0.81187       -0.59434
N          3.18576       -1.11523        0.07654
H          0.60667        0.72230        0.42616
H          3.33101        1.66781        1.04023
H          2.38632        2.04650       -0.45299
H          5.28780       -1.05094        0.05668
H          4.52474       -1.34079       -1.54676
H          2.72075       -1.99129       -0.14126
