16

C          0.93097       -0.00999        0.00033
C          2.42862        0.07159        0.04157
C          3.15401        1.20820        0.01070
C          2.72849        2.62994       -0.03456
C          4.59533        0.85771       -0.01159
N          5.61900        1.62885       -0.02776
S          4.75710       -0.89183       -0.04057
N          3.11936       -1.12502        0.13039
H          0.44650        0.96891       -0.01682
H          0.55818       -0.54637        0.87940
H          0.60893       -0.55286       -0.89465
H          1.64179        2.74930       -0.04004
H          3.11666        3.11952       -0.93301
H          3.10956        3.16583        0.84134
H          5.33294        2.60972       -0.01011
H          2.65730       -1.95877       -0.22558
