16

C          1.34342        0.24430        0.00643
C          2.79793       -0.06539        0.01621
N          3.75115        0.83966       -0.01469
C          4.99193        0.21884        0.01974
C          6.20611        1.07475        0.00592
C          4.95679       -1.16639        0.06635
N          5.98277       -2.04320        0.10542
S          3.32756       -1.69611        0.07105
H          1.18267        1.32734       -0.00241
H          0.85249       -0.16071        0.89693
H          0.86204       -0.17490       -0.88283
H          5.93915        2.13629        0.00409
H          6.80527        0.87385       -0.88764
H          6.82170        0.88174        0.89005
H          6.92657       -1.75086       -0.12515
H          5.79703       -3.02738       -0.06324
