16

N          1.07036        0.30506       -0.58228
C          2.30923       -0.00162       -0.08652
N          2.81480       -1.18663       -0.19522
C          3.08710        1.09262        0.65049
O          2.47223        2.03289        1.14008
C          4.56323        0.94834        0.69714
C          5.44764        2.17327        0.75900
C          5.31235        1.28986        1.96471
H          0.40016       -0.45258       -0.59135
H          0.68312        1.15595       -0.17167
H          2.16857       -1.77476       -0.72754
H          4.95711        0.11367        0.12325
H          4.97776        3.15048        0.79347
H          6.38418        2.15060        0.21415
H          4.74963        1.67171        2.80996
H          6.15281        0.66253        2.23773
