17

O          1.08937       -0.13572        0.40750
C          2.25355       -0.05281        0.01042
C          2.80542        1.00439       -0.96141
C          2.72789        0.79160       -2.50049
C          3.90849        1.79950       -2.39895
C          3.31573        3.08522       -1.83111
C          2.47284        2.47577       -0.71227
N          4.32735        0.95638       -1.19659
H          2.99532       -0.78580        0.37133
H          1.82456        1.14260       -3.00783
H          2.97742       -0.21182       -2.86687
H          4.61793        1.85443       -3.22480
H          2.70196        3.61694       -2.56500
H          4.08239        3.76461       -1.44601
H          1.40708        2.69139       -0.83723
H          2.79664        2.81840        0.27604
H          4.87911        1.46744       -0.50654
