19

O          2.74277       -2.66104        1.03943
C          2.25642       -2.40011       -0.27425
C          2.88844       -1.11991       -0.81450
C          4.42267       -1.14799       -0.87287
O          4.98557       -1.34924        0.42699
C          4.94749       -2.18343       -1.83434
C          6.43253       -2.40711       -1.97453
N          5.57661       -3.41194       -1.34255
H          2.25378       -3.43845        1.36760
H          1.16901       -2.28290       -0.22076
H          2.48288       -3.26020       -0.91092
H          2.59567       -0.29619       -0.15106
H          2.47992       -0.91055       -1.80983
H          4.76916       -0.16578       -1.21621
H          4.33471       -1.88826        0.92711
H          4.36277       -2.26262       -2.74306
H          7.11134       -1.87307       -1.32131
H          6.82263       -2.66383       -2.95097
H          5.68175       -3.34711       -0.32351
