19

C          1.07983        0.09538       -0.57125
C          2.60752        0.20641       -0.52224
C          3.06184        1.04990        0.66566
C          3.16160        0.76030       -1.86557
N          3.71353       -0.40274       -2.63528
C          3.72417       -1.36053       -1.75792
N          3.25024       -1.11298       -0.49730
N          2.76089       -2.19142        0.26717
H          0.61749        1.08681       -0.62852
H          0.68377       -0.40173        0.32150
H          0.74762       -0.48077       -1.44240
H          2.76970        0.58889        1.61567
H          4.15185        1.16417        0.68239
H          2.62090        2.05219        0.62580
H          3.97616        1.47690       -1.71258
H          2.38608        1.25356       -2.46161
H          4.07482       -2.38439       -1.96761
H          3.46121       -2.93394        0.32713
H          1.94238       -2.60524       -0.18577
