16

N          2.74529        0.13244        1.34517
C          2.47170       -0.08588       -0.08251
C          3.06515       -1.42823       -0.51136
N          3.98106       -1.42502       -1.43119
O          4.59961       -2.67692       -1.67059
C          3.73841       -3.82083       -1.62620
C          2.83672       -3.79432       -0.44000
C          2.53708       -2.64072        0.15944
H          2.41259        1.05880        1.60635
H          3.75951        0.15652        1.47648
H          2.91535        0.72346       -0.66847
H          1.39237       -0.09627       -0.25864
H          4.39473       -4.69444       -1.55489
H          3.17069       -3.89864       -2.55846
H          2.44642       -4.73343       -0.06423
H          1.89029       -2.54506        1.02097
