11

N          0.94906        0.03558        0.00878
C          2.29294        0.07748        0.00970
N          2.94379        1.23638        0.01001
S          4.57436        0.95397        0.01093
C          4.45635       -0.75005        0.01104
C          3.11918       -1.09166        0.01037
C          2.66477       -2.44339        0.01034
N          2.29575       -3.54387        0.01041
H          0.42768        0.90619        0.00977
H          0.38895       -0.80880        0.01046
H          5.33117       -1.38524        0.01156
