19

N          1.22818        0.84264       -1.25814
C          2.62867        0.46211       -1.47358
C          3.48720        0.79399       -0.23871
C          3.13560       -0.01785        1.00353
O          3.25939       -1.40694        0.72914
C          3.10770        1.21270       -2.68888
C          4.48727        1.02454       -3.27297
O          3.33948        0.38423       -3.84316
H          0.85462        0.32135       -0.46902
H          0.68992        0.52240       -2.06592
H          2.66862       -0.61867       -1.66577
H          3.42277        1.86421       -0.00753
H          4.53875        0.59116       -0.48203
H          3.82431        0.23282        1.81629
H          2.11593        0.18571        1.34433
H          3.05747       -1.88102        1.55610
H          2.62678        2.17164       -2.83982
H          5.20511        0.40984       -2.74774
H          4.92034        1.84835       -3.82911
