16

N          1.02972       -0.05706       -0.17964
C          2.48617       -0.08546       -0.03305
C          3.05886        0.95387        0.92919
O          4.32359        0.43889        1.38108
N          4.30760       -0.95743        1.12917
C          3.03197       -1.36033        0.57755
C          5.02618       -1.72910        1.99797
O          4.87890       -2.93349        2.17220
H          0.73542        0.85401       -0.53116
H          0.57971       -0.16723        0.72988
H          2.94519        0.05560       -1.01855
H          2.42384        1.10295        1.80941
H          3.21457        1.91997        0.43939
H          2.40696       -1.73582        1.39706
H          3.17432       -2.16824       -0.14565
H          5.80829       -1.15524        2.52245
