17

O          1.28873        0.16527        0.91431
C          2.42385        0.02203        0.05251
C          2.85131        1.35976       -0.57095
O          1.77182        1.92103       -1.35525
C          1.15435        2.96478       -0.57718
C          2.17943        3.43617        0.39862
N          2.47640        2.71463        1.63053
C          3.24856        2.40867        0.42620
H          0.92263       -0.72681        1.04553
H          2.14124       -0.67599       -0.74263
H          3.23998       -0.41097        0.63959
H          3.68136        1.17481       -1.26181
H          0.26650        2.55870       -0.07857
H          0.84063        3.76071       -1.25801
H          2.44732        4.47909        0.32865
H          1.79185        1.96088        1.78780
H          4.28128        2.72260        0.38510
