18

N          1.13308       -0.12204        0.08193
C          2.60075       -0.06168        0.14094
C          3.24486        0.97167       -0.88064
C          2.78172       -0.04751       -1.99874
C          3.31764       -0.99281       -0.88650
N          2.80581       -2.34184       -0.96324
C          4.80375       -0.64866       -0.76453
O          4.69383        0.79903       -0.75824
H          0.68327        0.69946        0.48622
H          0.74602       -0.92013        0.58274
H          3.00589       -0.04450        1.15715
H          2.90787        2.00684       -0.91017
H          3.35886       -0.02110       -2.92912
H          1.71907       -0.06819       -2.25945
H          1.79297       -2.35760       -1.09754
H          2.98142       -2.89494       -0.12676
H          5.39598       -0.96809       -1.62654
H          5.25094       -0.98659        0.17427
