16

C          0.87813        0.40047        0.55810
O          2.06440        0.09615       -0.16799
C          2.15176        0.80276       -1.33814
C          3.32159        1.09707       -1.91170
N          4.58303        0.79242       -1.44519
O          5.35136       -0.05170       -2.25707
C          5.37757        1.68962       -0.75731
N          6.64650        1.60989       -0.52863
H          0.88742       -0.18240        1.48310
H         -0.01386        0.12268       -0.01358
H          0.84829        1.46478        0.82041
H          1.20472        1.06453       -1.78918
H          3.35581        1.61424       -2.86732
H          4.82749       -0.87504       -2.24362
H          4.81323        2.55987       -0.37622
H          6.95411        0.73388       -0.97462
