17

O          1.09879       -0.06827        0.03576
C          2.32034       -0.07132        0.03358
C          3.19566        1.07661       -0.42001
C          4.57472        0.40881       -0.20986
C          4.76096       -0.73005       -1.22426
N          3.83217       -1.78225       -0.74391
C          3.22611       -1.21461        0.48498
C          4.36791       -0.39507        1.07170
H          3.05567        1.93124        0.24696
H          3.00546        1.33863       -1.46261
H          5.40344        1.11940       -0.18805
H          5.78917       -1.10826       -1.19913
H          4.52053       -0.42891       -2.24826
H          4.37130       -2.61251       -0.49602
H          2.74263       -1.92778        1.15253
H          5.23863       -0.99898        1.35046
H          4.06830        0.23059        1.91994
