11

O         -1.09838       -1.44909       -0.00300
C         -1.99556       -0.40333        0.00169
N         -1.46801        0.81226        0.00456
C         -0.14604        0.52968        0.00151
C          0.08258       -0.79348       -0.00294
S          1.68383       -1.23697       -0.00697
C          2.13059        0.45385       -0.00253
C          1.02315        1.29808        0.00192
H         -3.04227       -0.67492        0.00257
H          3.17762        0.72523       -0.00345
H          1.07382        2.37801        0.00516
