16

N          4.56414       -5.34654        0.63336
C          5.03448       -4.06028        0.44506
C          4.20548       -3.03640        0.18149
C          4.54490       -1.61646       -0.13034
N          5.64556       -0.94009       -0.19204
O          6.82086       -1.58251        0.21617
C          7.05274       -2.82867       -0.43323
C          6.54075       -3.90673        0.50332
H          3.57470       -5.42095        0.85943
H          5.14753       -5.92515        1.23259
H          3.13702       -3.22605        0.12022
H          3.64441       -1.02997       -0.38040
H          8.13485       -2.93571       -0.55370
H          6.60860       -2.86983       -1.43545
H          6.81766       -3.67707        1.54163
H          7.01569       -4.85664        0.23839
