15

N          3.19872        1.25930       -0.10106
C          2.50161        0.09345       -0.06334
N          1.20977        0.07133       -0.09129
C          3.26633       -1.23193        0.02393
O          4.67398       -1.00643       -0.00021
C          5.39651       -2.23887        0.09289
C          6.89092       -1.96167        0.07529
N          8.13065       -1.73171        0.06068
H          2.75910        2.15561       -0.24818
H          4.21254        1.21226       -0.16193
H          0.85873        1.03080       -0.13779
H          2.96934       -1.85364       -0.82837
H          2.97841       -1.72867        0.95799
H          5.14263       -2.87982       -0.75854
H          5.13929       -2.75228        1.02587
