17

C          0.88408       -0.03256        0.14314
C          2.40412       -0.07825        0.17073
C          3.02276       -0.06604        1.56564
N          2.60610       -1.19777        2.39558
C          2.96978        1.03187       -0.65870
N          3.63164        0.62404       -1.69039
N          3.60939       -0.80244       -1.69601
C          2.93777       -1.20054       -0.66415
H          0.50969        0.85056        0.67284
H          0.44261       -0.92327        0.60240
H          0.50264        0.01893       -0.88404
H          2.76140        0.86487        2.08187
H          4.11816       -0.08412        1.49461
H          1.60471       -1.15803        2.58384
H          3.06010       -1.13035        3.30848
H          2.82153        2.08782       -0.39392
H          2.75871       -2.25361       -0.40536
