19

O          0.93802        0.12338       -0.01472
C          2.34346       -0.03550       -0.05628
C          2.84507       -0.50133       -1.43151
C          3.64848       -1.76625       -1.07569
C          4.21748       -1.43354        0.29834
C          2.83716       -1.15258        0.87905
C          2.11419       -2.46205        0.55208
N          2.70573       -2.85572       -0.74617
H          0.69822        0.78546       -0.68578
H          2.80516        0.92164        0.21373
H          3.51293        0.25571       -1.85903
H          2.04019       -0.69177       -2.14923
H          4.38160       -2.05552       -1.83129
H          4.87533       -0.55808        0.29566
H          4.72977       -2.27533        0.77759
H          2.80506       -0.88973        1.93826
H          1.02679       -2.35820        0.49098
H          2.34778       -3.23338        1.29384
H          1.96914       -2.91203       -1.44942
