14

C          2.53522        1.29077        0.34077
C          2.36407        0.02532       -0.06998
N          3.07442       -0.75150       -0.96076
S          4.18439       -0.07122       -2.02417
C          4.40361       -1.58693       -2.84634
C          3.70195       -2.61349       -2.35212
C          2.89872       -2.11070       -1.20827
N          2.12216       -2.90887       -0.54085
H          1.84926        1.73004        1.05696
H          3.36132        1.90303       -0.00167
H          1.52892       -0.53704        0.34756
H          5.06611       -1.66427       -3.69763
H          3.68962       -3.62744       -2.70692
H          2.17675       -3.86250       -0.91157
