19

N          0.68110        0.17271       -1.45580
C          1.82474       -0.42212       -0.79236
C          3.23548       -0.16011       -1.22919
C          2.71593        0.49229        0.01949
C          3.02502        0.13590        1.45398
C          4.45802        0.13158        1.99846
O          4.03923        0.83807        3.19617
C          2.79831        1.20352        2.54079
H          0.78369        0.16366       -2.46939
H          0.53602        1.14176       -1.18202
H          1.64946       -1.42876       -0.42006
H          3.96417       -0.95724       -1.12634
H          3.39850        0.46712       -2.09820
H          2.57912        1.56727       -0.05416
H          2.51461       -0.80067        1.72351
H          5.19469        0.71172        1.43605
H          4.85979       -0.85819        2.23217
H          2.82856        2.24656        2.20700
H          1.92269        1.04513        3.17644
