14

N          1.19872        0.17792       -0.11533
C          2.55691        0.08499        0.04820
N          3.12446        0.96220        0.92266
C          3.26152       -0.83242       -0.64864
C          4.74722       -0.90955       -0.66223
O          5.47284       -0.08967       -0.09618
C          5.38873       -1.96374       -1.43144
C          5.93941       -2.82069       -2.06986
H          0.73216        0.64232        0.65448
H          0.72846       -0.66649       -0.42063
H          2.60925        1.81677        1.06206
H          4.12266        1.10939        0.76329
H          2.76651       -1.54352       -1.28532
H          6.45168       -3.57671       -2.62755
