14

N          0.96929       -0.18686        0.19042
C          2.29262       -0.02708        0.13741
C          3.01827        1.13853        0.08725
C          2.68417        2.57430        0.09095
O          3.69511        3.28840       -0.61422
O          4.34620        0.78339        0.07354
C          4.31111       -0.57925        0.09641
N          3.10919       -1.11151        0.13699
H          0.32479        0.54612       -0.07769
H          0.60767       -1.12457        0.04561
H          2.63312        2.95980        1.11363
H          1.72821        2.76226       -0.40471
H          4.54630        2.92473       -0.31105
H          5.26441       -1.08789        0.08244
