13

C          1.05471       -0.00644        0.08217
N          2.45437       -0.10064        0.40366
O          3.22952        1.02852        0.08626
C          4.51325        0.51056       -0.00599
C          4.63237       -0.80809        0.04754
Cl         5.97203       -1.80764       -0.04310
C          3.23167       -1.21781        0.20725
N          2.80186       -2.43601        0.15096
H          0.71871        1.03393        0.10262
H          0.46777       -0.55785        0.82368
H          0.83909       -0.41825       -0.91025
H          5.28394        1.25177       -0.11890
H          3.59582       -3.07059       -0.00950
