16

C          1.09357        0.00134       -0.19855
C          2.59621       -0.07392        0.01200
C          2.94237       -0.55776        1.40638
O          2.09526       -0.84842        2.24671
N          4.31190       -0.63423        1.62309
C          4.95536       -1.02792        2.76236
N          4.19469       -1.39039        3.81600
S          6.61278       -1.05794        2.84440
H          0.86278        0.35211       -1.20855
H          0.63193        0.68968        0.51770
H          0.62944       -0.98145       -0.06208
H          3.03829        0.91762       -0.13539
H          3.03586       -0.76258       -0.71792
H          4.93058       -0.37319        0.86658
H          3.17814       -1.36552        3.74515
H          4.61167       -1.69108        4.68636
