13

O          1.01409        0.07414        0.51091
C          2.18709        0.07396        0.23960
C          3.39107        1.11249        0.00626
N          4.13077        0.07393        0.86824
C          3.39086       -0.96485        0.00665
C          3.93391       -0.69920       -1.38066
O          3.15376        0.07339       -2.28772
C          3.93403        0.84622       -1.38096
H          3.31728        2.11484        0.41913
H          3.83977        0.07420        1.84975
H          3.31691       -1.96701        0.41996
H          4.83691       -1.22167       -1.65343
H          4.83706        1.36851       -1.65401
