16

C          0.98981        0.10048       -0.07700
C          2.47668        0.13080       -0.06003
N          3.09826        1.30934       -0.01978
S          4.73433        1.05788       -0.01207
C          4.65953       -0.65216       -0.04421
C          5.90233       -1.47336       -0.06075
N          5.69933       -2.76026        0.60056
C          3.32744       -1.01980       -0.08240
H          0.56315        1.10895       -0.08173
H          0.61180       -0.42279        0.80722
H          0.63029       -0.42310       -0.96864
H          6.72512       -0.94970        0.43922
H          6.20453       -1.64990       -1.09889
H          5.47132       -2.59179        1.58012
H          6.57906       -3.27349        0.59961
H          2.98691       -2.04679       -0.11958
