18

C          1.05624        0.03058       -0.20838
C          2.55761        0.19268       -0.06457
S          3.00189        1.88871        0.27020
O          2.57047        2.67727       -0.86981
O          2.53945        2.19385        1.61145
C          4.81076        1.82416        0.27551
O          5.45370        3.08379        0.52212
C          6.86756        2.97507        0.49448
H          0.80033       -1.01567       -0.40037
H          0.67371        0.63220       -1.03931
H          0.53556        0.34985        0.70012
H          3.06197       -0.10701       -0.98785
H          2.93128       -0.41637        0.76395
H          5.11117        1.44954       -0.70886
H          5.09734        1.10999        1.05452
H          7.29179        3.96485        0.68458
H          7.20805        2.63305       -0.48746
H          7.21539        2.29078        1.27415
