17

N          1.04839        0.09284        0.23168
C          2.49772        0.06152        0.03827
C          3.00922       -1.31540       -0.35771
C          2.57733       -1.66251       -1.76616
O          2.85937       -0.63360       -2.72476
C          2.72051        0.67816       -2.42087
O          2.54455        1.50899       -3.30419
C          2.95298        1.08302       -0.99176
H          0.75639       -0.63287        0.88751
H          0.53824       -0.07110       -0.63532
H          2.94415        0.32997        1.00349
H          2.67049       -2.08474        0.34532
H          4.10561       -1.30525       -0.31425
H          1.50461       -1.88061       -1.81644
H          3.10180       -2.56510       -2.09623
H          2.45554        2.04553       -0.81450
H          4.03150        1.25388       -0.88917
