17

O          1.03656        0.07968       -0.00501
C          2.43379       -0.19480       -0.19155
C          2.70104       -1.71457       -0.09746
C          2.20809       -2.46360       -1.31228
C          2.19859       -1.87286       -2.51930
C          2.71952       -0.52503       -2.75533
N          1.85539        0.62347       -2.56938
C          2.86576        0.35908       -1.53178
H          0.69679       -0.53804        0.66289
H          2.96967        0.32067        0.61292
H          2.20406       -2.12119        0.79099
H          3.77657       -1.90236        0.00702
H          1.84708       -3.47899       -1.18863
H          1.81805       -2.41698       -3.37997
H          3.46973       -0.43574       -3.53318
H          0.94744        0.37026       -2.16587
H          3.69921        1.04512       -1.48148
