12

O          0.96012       -0.00728       -0.03115
C          2.32324        0.01392       -0.02655
C          3.05777        1.18678       -0.02152
N          4.40912        1.19372       -0.01682
N          5.07508        0.00908       -0.01699
C          4.36719       -1.13726       -0.02194
O          5.10512       -2.27905       -0.02166
C          2.99490       -1.19328       -0.02687
H          0.61811        0.90281       -0.02946
H          2.59672        2.16643       -0.02105
H          6.01025       -1.91904       -0.01749
H          2.47003       -2.13920       -0.03073
