18

C          0.88550        0.05728       -0.17230
C          2.41265        0.04190       -0.18582
C          2.95484        1.26454        0.50047
C          3.73628        1.20897        1.58778
C          4.17689       -0.05185        2.25624
N          3.59456       -1.22891        1.65400
C          2.92336       -1.25319        0.46364
N          2.68951       -2.37590       -0.13812
H          0.49405        0.97335       -0.62821
H          0.49364       -0.00956        0.84948
H          0.48017       -0.79196       -0.73335
H          2.76138        0.04532       -1.22599
H          2.69229        2.23039        0.07599
H          4.09282        2.13665        2.02777
H          3.89765       -0.01942        3.31438
H          5.26869       -0.12166        2.20319
H          3.97921       -2.10144        1.98748
H          3.06562       -3.14657        0.41460
