15

N          2.85539       -0.26668       -1.32118
C          2.43546        0.05567        0.06075
C          3.01175       -0.91339        1.11102
C          2.53831       -2.29778        0.89084
C          2.14181       -3.41864        0.71835
C          4.53296       -0.85254        1.18570
O          5.15966       -0.63390        0.00305
O          5.16175       -1.02996        2.22063
H          2.41358        0.41013       -1.95297
H          2.42675       -1.16323       -1.58506
H          1.33989        0.05287        0.10286
H          2.77215        1.07506        0.28204
H          2.64724       -0.56941        2.08856
H          1.79374       -4.41664        0.57734
H          4.51240       -0.52458       -0.74177
