16

C          2.29794        1.50423       -0.85987
N          2.41249        0.15047       -0.36034
C          3.06657       -0.79742       -1.08194
C          4.05662       -0.63838       -2.02942
C          4.47499       -1.87638       -2.60111
C          3.80547       -2.95083       -2.06475
N          3.95735       -4.24797       -2.39868
S          2.69771       -2.45832       -0.86243
H          1.69629        2.10169       -0.16826
H          1.80553        1.52102       -1.83777
H          3.28004        1.98183       -0.94235
H          1.60071       -0.17292        0.16165
H          4.46680        0.32145       -2.31108
H          5.23285       -1.96515       -3.36779
H          4.40310       -4.50416       -3.27267
H          3.26435       -4.91638       -2.07479
