15

C          3.16528        0.60993        1.08090
N          2.57946        0.10453       -0.14249
C          3.21000       -0.61568       -1.11396
S          2.28670       -1.36061       -2.28335
N          4.56426       -0.68965       -0.99404
C          5.45891       -1.55587       -1.75665
C          6.75673       -1.69758       -1.07519
N          7.76662       -1.78659       -0.50690
H          2.36174        0.93148        1.74729
H          3.81292        1.45439        0.84278
H          3.75134       -0.18137        1.55997
H          1.56702        0.08333       -0.20115
H          5.00437        0.07241       -0.49750
H          5.59015       -1.11178       -2.74954
H          4.98641       -2.53758       -1.87836
