17

N          0.96348       -0.01332       -0.03307
C          2.43236        0.00490       -0.09753
C          2.93434        1.02827       -1.14210
O          2.44418        0.70281       -2.45904
C          3.14460       -0.25895       -3.10996
O          4.12367       -0.85462       -2.69261
C          2.96770        0.30925        1.27302
C          3.80834       -0.49007        1.94505
H          0.61044       -0.24788       -0.96084
H          0.62138        0.92795        0.15165
H          2.74323       -1.00033       -0.40449
H          4.02997        1.09559       -1.14942
H          2.56225        2.03333       -0.90738
H          2.68388       -0.43331       -4.09460
H          2.64346        1.23429        1.74395
H          4.15684       -1.42942        1.52611
H          4.15524       -0.22433        2.93877
