12

O          1.26286        0.00378        0.04638
N          2.65465        0.12430       -0.07466
C          3.21036       -0.70507        0.73559
C          4.64243       -0.66268        0.68968
C          5.84407       -0.66654        0.68558
C          7.27584       -0.72166        0.71206
N          7.83221        0.27128        0.11381
O          9.22373        0.12325        0.19972
H          0.93936        0.66663       -0.59286
H          2.69202       -1.39863        1.41510
H          7.79393       -1.55419        1.21162
H          9.54749        0.90947       -0.27963
