16

N          1.19993       -0.14885        0.53609
N          2.44723       -0.12510       -0.14432
C          3.28513       -1.31294       -0.05715
C          4.35429       -1.29047       -1.14042
O          5.17940       -0.13768       -0.95452
C          4.41571        1.06033       -1.08424
C          3.01544        1.12681       -0.43536
O          2.41038        2.19001       -0.28615
H          0.58016       -0.79404        0.04397
H          0.77579        0.78111        0.40610
H          2.65259       -2.20147       -0.16043
H          3.74970       -1.30740        0.93365
H          3.91574       -1.27120       -2.14563
H          4.98953       -2.17750       -1.06246
H          4.28428        1.26278       -2.15117
H          5.01975        1.86783       -0.65795
