15

C          1.00739       -0.06532       -0.05045
N          2.45417       -0.05066        0.03460
C          3.27454       -1.17195        0.27704
C          4.53011       -0.80892        0.55458
C          4.84345        0.65855        0.59949
S          3.31590        1.40297        0.04599
O          2.77727        2.25212        1.08623
O          3.45245        1.85472       -1.32269
H          0.62353       -1.08850       -0.06588
H          0.67378        0.43566       -0.96335
H          0.57092        0.44106        0.81800
H          2.87957       -2.17811        0.22850
H          5.30307       -1.53811        0.75995
H          5.65106        0.93245       -0.08002
H          5.04932        0.98245        1.62281
