19

N          2.03926       -1.38202       -0.02502
C          2.31518        0.05343       -0.04247
C          2.86798        0.52011       -1.40136
C          1.84173        0.34566       -2.53958
C          1.21424        1.69946       -2.64967
C          1.93341        2.62594       -2.00749
C          3.14674        2.03690       -1.36723
O          4.28007        2.36521       -2.15650
H          1.67826       -1.64357        0.89221
H          2.90855       -1.90078       -0.14540
H          3.04402        0.27507        0.74599
H          1.39402        0.59170        0.20781
H          3.77978       -0.04539       -1.63266
H          1.09368       -0.42523       -2.33356
H          2.34104        0.10054       -3.48398
H          0.30785        1.89499       -3.20604
H          1.69472        3.67966       -1.96836
H          3.30462        2.41610       -0.35335
H          4.03377        2.22607       -3.08735
