14

N          1.13020        0.15289        0.47611
C          2.33291        0.04403        0.03648
C          3.12182       -1.22250        0.03007
C          4.02629       -1.16035       -1.17763
O          4.84863        0.01509       -1.13010
C          4.23411        1.21415       -0.90674
O          4.80477        2.27908       -1.10328
N          2.95317        1.15668       -0.42157
H          0.77451       -0.75190        0.80523
H          2.45926       -2.09142       -0.01218
H          3.70318       -1.25913        0.95732
H          3.46141       -1.15341       -2.11797
H          4.69281       -2.02834       -1.19462
H          2.47102        2.03620       -0.31035
