14

C          0.83007        0.11188       -0.07227
C          2.31734        0.03362       -0.07824
C          3.23340        1.06516       -0.06517
C          4.57594        0.59061       -0.08594
Cl         5.91598        1.66074       -0.07445
C          4.65317       -0.78788       -0.11935
N          5.76017       -1.56296       -0.15815
S          3.09250       -1.49138       -0.10751
H          0.49316        1.15377       -0.06951
H          0.41870       -0.37573        0.81764
H          0.41210       -0.37189       -0.96129
H          2.95449        2.11129       -0.04417
H          6.67769       -1.16229        0.01104
H          5.68695       -2.56182        0.00154
