14

O          0.94545        0.09511        0.11130
S          2.38801       -0.01013        0.09812
O          3.21614        0.37292        1.21732
N          2.78535       -1.60864       -0.37210
N          2.63493       -1.65345       -1.78537
C          3.14397       -0.35197       -2.30080
C          2.17843        0.75840       -2.61414
C          3.00717        0.83716       -1.36581
H          2.21873       -2.30070        0.12708
H          1.63245       -1.73977       -1.99834
H          4.05420       -0.42004       -2.88792
H          1.11236        0.59038       -2.51397
H          2.43189        1.43438       -3.42353
H          3.84294        1.51165       -1.27541
