16

C          1.30893        0.39085        0.28449
O          2.73045        0.34700        0.14996
C          3.19211        1.06195       -0.91399
O          2.47376        1.64190       -1.71726
N          4.56741        1.03469       -0.91239
N          5.27206        1.81922       -1.77577
C          6.55602        1.77616       -1.65603
C          7.41547        2.64386       -2.52259
H          1.04274       -0.06806        1.24035
H          0.83666       -0.17946       -0.52114
H          0.94596        1.42451        0.29186
H          5.02799        0.53324       -0.16425
H          7.07332        1.12251       -0.93218
H          6.80215        3.28356       -3.16263
H          8.05712        2.01146       -3.14029
H          8.04481        3.26651       -1.88151
