19

C          1.07576        0.16120       -0.13579
C          2.37071       -0.10210        0.06763
C          2.99163       -1.43074        0.34774
C          4.16787       -1.00620        1.22090
N          4.63810        0.26214        0.62080
C          4.85825        1.30271        1.64272
C          3.42046        1.80402        1.45240
C          3.39681        0.95897        0.16695
H          0.33862       -0.63570       -0.15320
H          0.71890        1.17578       -0.28067
H          3.34358       -1.88748       -0.58499
H          2.32510       -2.12470        0.86622
H          4.96437       -1.75629        1.21516
H          3.82789       -0.89009        2.26034
H          5.61606        2.03634        1.33987
H          5.11408        0.95821        2.65013
H          3.32038        2.88340        1.30483
H          2.73016        1.48901        2.24311
H          3.54254        1.52808       -0.75854
