19

C          0.99924        0.01939       -0.07708
C          2.51319       -0.01754       -0.07971
C          3.24026        1.01385        0.81032
N          4.23794       -0.03552        1.12064
C          3.19062       -1.06814        0.84134
C          3.77083       -2.34972        0.18639
N          2.98151       -3.31446       -0.17284
N          3.62828       -4.37522       -0.70416
H          0.63435        0.89011       -0.63025
H          0.59680        0.07181        0.93983
H          0.59293       -0.87799       -0.55464
H          2.90373       -0.03432       -1.10788
H          2.67338        1.35067        1.68691
H          3.64193        1.88824        0.29145
H          4.57401       -0.02688        2.08292
H          2.60071       -1.30826        1.73762
H          4.86738       -2.40021        0.05729
H          2.94746       -5.05481       -1.05156
H          4.20704       -4.11590       -1.50682
