19

N          3.58853        0.55535       -0.53719
C          2.45456       -0.16204        0.03281
C          2.89547       -1.04948        1.16360
C          3.87563       -2.26569        0.94986
C          3.28637       -2.59784        2.36793
C          1.92878       -2.17326        1.70241
O          3.67332       -1.52461        3.26257
C          3.41381       -0.36491        2.44880
H          3.26474        1.14554       -1.30397
H          4.24068       -0.10732       -0.95654
H          1.97838       -0.75378       -0.75701
H          1.71184        0.56214        0.38461
H          4.94266       -2.02719        0.91913
H          3.63514       -2.95895        0.13651
H          3.39770       -3.60122        2.77616
H          1.14096       -1.84813        2.38777
H          1.50404       -2.86069        0.96274
H          4.34373        0.18964        2.29372
H          2.65637        0.26103        2.93014
