19

O          2.95587       -1.14822       -0.32358
C          2.28261        0.03534        0.08607
C          2.82077        1.19324       -0.72362
C          2.33410        2.60649       -0.33430
N          3.70376        3.10212       -0.61632
C          4.21819        1.72915       -0.31762
C          5.38872        1.32173       -1.20051
O          6.45332        2.25321       -1.02119
H          2.53997       -1.89364        0.14380
H          2.44618        0.17391        1.15968
H          1.21085       -0.09563       -0.09237
H          2.71537        1.01255       -1.80397
H          2.03483        2.72026        0.71492
H          1.55469        3.02919       -0.97307
H          4.02902        3.81927        0.03171
H          4.45206        1.59998        0.74866
H          5.12305        1.31200       -2.26278
H          5.75118        0.32629       -0.92888
H          6.07448        3.11638       -1.26842
