17

O          1.02091       -0.05995       -0.21509
C          2.04800        0.17219        0.41332
C          3.01201       -0.88399        0.92133
C          2.58402       -2.30380        0.51764
C          3.14672       -2.46746       -0.86570
N          4.52219       -2.89687       -1.06201
C          4.25399       -1.46960       -1.03767
C          4.37673       -0.68893        0.24081
H          2.32047        1.21326        0.66266
H          3.06929       -0.76733        2.00782
H          1.49905       -2.44500        0.53259
H          3.03092       -3.04073        1.19604
H          2.42017       -2.59308       -1.65611
H          4.66020       -3.22902       -2.01871
H          4.31728       -0.89696       -1.95183
H          4.60738        0.36372        0.04490
H          5.17726       -1.10568        0.86445
