16

N          0.98447       -0.13177        0.25173
C          2.44342       -0.06669        0.13374
C          2.88519        1.25957       -0.53880
N          3.88841        1.14989       -1.57810
C          4.21440        0.00280       -2.23536
O          4.92574        0.00662       -3.23371
C          3.70600       -1.26018       -1.66538
C          2.91130       -1.28840       -0.58929
H          0.63485        0.70096        0.72185
H          0.72310       -0.92116        0.83974
H          2.86395       -0.09134        1.14689
H          3.29038        1.93784        0.22164
H          2.03262        1.78105       -0.99023
H          4.20609        1.99145       -2.04292
H          4.02900       -2.16474       -2.16640
H          2.59676       -2.25634       -0.20368
