18

C          1.09056       -0.07262        0.18276
N          2.49040       -0.04412       -0.23523
C          3.22638       -1.30093       -0.17962
C          4.21670       -1.36459       -1.32600
C          5.15617       -0.18852       -1.18898
N          4.45217        1.03876       -0.90093
C          3.17473        1.14527       -0.42106
S          2.58728        2.68874       -0.15151
H          0.70696       -1.09672        0.19034
H          0.49689        0.50956       -0.52869
H          0.99351        0.35971        1.18280
H          2.53284       -2.14513       -0.25604
H          3.73306       -1.35870        0.79160
H          3.67635       -1.30070       -2.27906
H          4.77083       -2.30779       -1.31994
H          5.72506       -0.03795       -2.11178
H          5.87308       -0.34937       -0.37422
H          4.94434        1.91824       -1.00412
