22

C          1.09465       -0.01216        0.15247
C          2.62046        0.00680       -0.01514
C          2.94146        0.06576       -1.51560
C          3.23442        1.17252        0.76692
C          4.58622        0.67322        1.25540
N          5.67605        1.02378        0.33807
C          4.36612       -0.83992        1.38731
N          3.22612       -1.21845        0.54048
H          0.64687        0.90161       -0.25362
H          0.80451       -0.08399        1.20713
H          0.64545       -0.86489       -0.37133
H          2.60099        1.01164       -1.95110
H          2.44342       -0.74729       -2.05744
H          4.01020       -0.02709       -1.72546
H          2.62261        1.40476        1.64927
H          3.30521        2.09489        0.17971
H          4.82058        1.11609        2.22868
H          5.55562        0.50872       -0.53335
H          6.55654        0.68362        0.72144
H          4.13385       -1.08131        2.43193
H          5.25387       -1.42002        1.11452
H          2.54742       -1.72518        1.10867
