12

O          1.59784       -0.03753       -0.99277
C          2.63433        0.17547       -0.40093
N          3.82770       -0.48197       -0.56212
C          4.84305       -0.03185        0.35302
C          3.99483        0.82801        1.25347
C          2.79596        1.10725        0.72129
C          5.87622        0.81145       -0.31099
N          6.66601        1.50364       -0.82741
H          3.93452       -1.21144       -1.25451
H          5.26672       -0.88811        0.86765
H          4.33907        1.21136        2.19930
H          2.02734        1.77661        1.06579
