11

O          2.44227        1.09689       -0.27126
N          2.27477       -0.11444       -0.07186
O          1.56252       -0.86772       -0.74754
C          2.97413       -0.67211        1.04212
C          3.81799       -0.10734        1.96960
C          4.19806       -1.17090        2.82849
C          3.55868       -2.29901        2.36027
O          2.80549       -2.00367        1.26516
H          4.11822        0.93051        2.01891
H          4.85744       -1.12389        3.68483
H          3.53586       -3.33374        2.67627
