21

C          3.55003        0.36329        0.96026
O          2.29989        0.93536        0.59596
C          2.32452        1.74311       -0.59598
C          3.01200        3.09150       -0.31546
C          0.82902        2.01574       -0.99464
N          0.01920        2.68865        0.03687
O          3.06154        1.12194       -1.66243
C          2.46598       -0.04052       -2.21894
H          3.47755        0.02272        1.99631
H          4.38046        1.06953        0.89377
H          3.76121       -0.50898        0.33525
H          3.19139        3.63835       -1.24806
H          2.42451        3.72377        0.35659
H          3.98841        2.96902        0.16373
H          0.33190        1.06191       -1.20058
H          0.79195        2.60039       -1.92177
H          0.14425        2.16479        0.90830
H         -0.96716        2.61057       -0.20650
H          1.63028        0.23215       -2.87166
H          2.12972       -0.73838       -1.44491
H          3.21533       -0.54325       -2.83576
