21

C          0.85224       -0.11188        0.14619
C          2.37131       -0.14580        0.02379
C          2.90620       -1.52077       -0.36884
C          3.05860       -1.45953       -1.88302
N          3.42390       -0.06534       -2.19993
C          2.28023        0.79723       -2.45187
C          2.90365        0.76071       -1.06995
C          3.73177        1.93028       -0.62647
H          0.52139       -0.75168        0.97083
H          0.35309       -0.46523       -0.76149
H          0.50431        0.90705        0.34479
H          2.79280        0.13418        0.99707
H          2.26908       -2.34725       -0.04030
H          3.89717       -1.66298        0.08298
H          2.12967       -1.76180       -2.38345
H          3.84362       -2.14366       -2.21958
H          1.31704        0.34106       -2.63783
H          2.47946        1.65129       -3.09124
H          3.19851        2.49819        0.14316
H          3.95201        2.61718       -1.45045
H          4.68314        1.59157       -0.20362
