13

O          1.58769       -0.34394       -0.42998
C          2.70795       -0.12864        0.03063
C          3.75837       -1.21725        0.10580
C          4.23080       -1.36846        1.52890
C          4.86301       -0.38263        2.17980
C          5.16334        0.83109        1.39358
N          4.38864        1.45173        0.56150
O          3.02482        1.06263        0.63112
H          4.57793       -1.01062       -0.59205
H          3.29782       -2.15823       -0.21259
H          4.02200       -2.30749        2.03345
H          5.22867       -0.46127        3.19414
H          6.20136        1.18975        1.49241
