16

O          1.30800       -0.05719       -0.88558
C          2.36344       -0.07116       -0.26215
N          2.84150       -1.23050        0.29278
C          3.89574       -1.20735        1.27271
C          4.96666       -0.16519        0.93826
N          4.50274        1.15830        0.50498
C          3.42543        1.74745        1.28444
C          3.15443        1.17980       -0.09313
H          2.21719       -2.02385        0.22368
H          4.33463       -2.20904        1.31710
H          3.43604       -1.00083        2.24506
H          5.58152       -0.56336        0.12110
H          5.63859       -0.04949        1.79662
H          3.45028        2.82709        1.38241
H          3.05035        1.23272        2.15873
H          3.03634        1.89067       -0.90438
