20

C          0.95183       -0.23278       -1.42344
O          2.37257       -0.24214       -1.32497
C          2.82046       -1.36583       -0.58157
C          4.32201       -1.34259       -0.42594
N          5.05967       -2.28938       -0.91280
N          6.36227       -2.23221       -0.52686
C          7.21365       -1.13640       -1.00570
C          7.08975       -3.50136       -0.64992
H          0.65215        0.60911       -2.05355
H          0.50483       -0.10287       -0.43251
H          0.58807       -1.15919       -1.88005
H          2.51260       -2.29575       -1.06920
H          2.39989       -1.32251        0.42910
H          4.73349       -0.50509        0.16494
H          6.66368       -0.19272       -1.08380
H          7.64450       -1.34607       -1.99127
H          8.02817       -0.96937       -0.29212
H          6.42523       -4.35110       -0.45323
H          7.89693       -3.54626        0.08796
H          7.51163       -3.64067       -1.65196
