21

N          2.51261        1.16625        2.72100
C          2.02093       -0.18185        2.48067
C          2.79897       -0.85075        1.37609
C          2.18776       -1.30268        0.26641
C          4.29771       -0.99966        1.55344
C          4.72419       -1.78772        2.79505
C          4.23315       -3.22982        2.79271
O          4.67379       -3.89182        3.97317
H          1.96481        1.58839        3.46825
H          2.33672        1.72832        1.88944
H          0.95312       -0.13114        2.23766
H          2.10290       -0.77095        3.40010
H          1.11561       -1.20190        0.12530
H          2.74182       -1.78149       -0.53543
H          4.74965       -0.00105        1.59711
H          4.73748       -1.48191        0.67024
H          4.38868       -1.28614        3.71068
H          5.82020       -1.78523        2.85486
H          4.61776       -3.77792        1.92629
H          3.14088       -3.28263        2.77561
H          5.64143       -3.80657        4.01431
