16

C          1.01548       -0.49280        0.33071
C          2.40851       -0.02325       -0.06196
N          2.91354        0.96663        0.86885
S          2.56682        2.59410        0.68475
C          3.21745        2.94273        2.26109
C          3.65923        1.88053        2.94623
C          3.44624        0.67710        2.10516
N          3.73930       -0.50949        2.52664
H          0.66037       -1.25251       -0.37264
H          0.29997        0.33594        0.32385
H          1.01077       -0.93056        1.33424
H          2.38347        0.38201       -1.08113
H          3.08657       -0.88434       -0.09540
H          3.24571        3.95680        2.63712
H          4.08740        1.86832        3.93194
H          4.12217       -0.47132        3.47477
