13

O          1.06038       -0.04876        1.00741
N          2.43347       -0.27957        1.14580
C          3.07627        0.77628        0.76066
C          4.57626        0.81468        0.77188
C          5.08292        1.93352        1.66737
C          5.51753        2.89325        2.43553
C          6.01762        3.95873        3.26795
O          6.99897        4.60636        2.93240
H          0.67425       -0.89541        1.30211
H          2.55071        1.67486        0.39070
H          4.92080        0.99217       -0.25179
H          4.97694       -0.14338        1.11752
H          5.46208        4.13913        4.20114
