17

N          0.90089        0.19250       -0.10922
C          2.35131        0.11765       -0.01271
C          3.14964       -0.73586       -0.95384
C          3.15967        0.76350       -1.10890
C          4.37521        1.56899       -0.74879
C          4.20433        3.06822       -0.87043
O          2.95949        3.52692       -0.60460
O          5.12709        3.83025       -1.12929
H          0.46434       -0.36427        0.62909
H          0.56089       -0.22289       -0.97861
H          2.73362        0.19143        1.00433
H          2.63175       -1.31539       -1.71026
H          4.04234       -1.22007       -0.57363
H          2.66222        1.14368       -1.99611
H          5.18711        1.27695       -1.42406
H          4.69854        1.36120        0.27796
H          2.30904        2.83107       -0.37511
