13

O          1.86587        2.42099        2.05041
C          2.45738        1.40722        1.68662
C          2.95110        1.19757        0.27980
C          4.42484        0.99242        0.29651
C          5.45077        1.91469        0.21434
C          6.71195        1.25409        0.24161
N          6.69307       -0.07100        0.34714
S          5.11473       -0.57283        0.40369
H          2.61254        0.56662        2.38484
H          2.69665        2.07832       -0.32002
H          2.42219        0.33920       -0.14745
H          5.31236        2.98517        0.13302
H          7.68142        1.73323        0.18330
