14

O          1.15556       -0.31103       -0.25200
C          2.50288        0.09619       -0.04092
C          3.00786       -0.59375        1.18075
C          3.47719       -0.02524        2.29386
C          3.68389       -1.14137        3.22672
N          4.09985       -1.10834        4.43846
O          3.32106       -2.30736        2.60084
N          2.96998       -1.96784        1.28575
H          0.83476        0.18193       -1.02627
H          2.52877        1.18483        0.06977
H          3.09754       -0.18712       -0.91511
H          3.60307        1.01417        2.52744
H          4.30392       -0.14479        4.71245
H          2.06552       -2.34544        0.99321
