18

N          2.90743       -1.38890        0.40535
C          2.37999       -0.10138       -0.02625
C          2.96433        1.05268        0.79025
C          4.48501        1.08438        0.69354
C          5.10441        1.33465       -0.70329
N          5.95095        2.34808       -0.06434
C          5.16056        2.42342        1.04328
O          5.05690        3.29920        1.86674
H          2.48438       -2.13318       -0.14854
H          2.63247       -1.56704        1.37189
H          1.28987       -0.10307        0.07324
H          2.60939        0.03434       -1.08906
H          2.66485        0.95935        1.84149
H          2.53733        1.99233        0.42157
H          4.95527        0.25467        1.23968
H          4.44519        1.76943       -1.46078
H          5.66743        0.49733       -1.12167
H          6.29676        3.21663       -0.44898
