17

C          2.72225        0.94970       -2.53821
O          2.50960        1.89441       -1.49428
C          3.16020        1.52513       -0.28253
C          4.68729        1.51909       -0.37586
O          5.31784        0.56392       -0.82835
N          5.25047        2.72886        0.01914
C          6.66385        2.93753       -0.04508
C          5.71339        3.69090       -0.92544
H          2.13053        1.25729       -3.40431
H          2.39906       -0.04882       -2.22914
H          3.77261        0.93296       -2.84237
H          2.81716        0.54000        0.05227
H          2.85213        2.24431        0.48520
H          7.24743        2.13877       -0.48405
H          7.07502        3.42052        0.82849
H          5.60336        3.40676       -1.96341
H          5.45231        4.70770       -0.66794
