14

O          1.56485        0.19682       -0.59646
C          2.59731        0.26973        0.04579
C          3.41093       -0.88840        0.43396
N          3.70313       -1.15229        1.85052
C          4.65428       -0.39014        1.17123
C          4.49674        1.02062        1.06571
C          3.42689        1.84748        1.73944
N          3.33078        1.37328        0.40224
H          3.50128       -1.70901       -0.26339
H          3.98984       -2.12396        1.97385
H          5.60464       -0.84122        0.91332
H          5.37397        1.57521        0.74178
H          3.54714        2.91942        1.80522
H          2.74170        1.39266        2.44174
