18

N          1.08500        0.97320       -1.63226
N          2.41108        1.07867       -1.84078
C          3.13303        0.77010       -0.80863
C          4.64342        0.77911       -0.88506
C          5.10705       -0.65064       -1.15374
O          4.79392       -1.07807       -2.47538
C          5.16004        1.75910       -1.93394
O          4.75496        3.08678       -1.60353
H          0.57379        1.32886       -2.44530
H          0.76183        1.52434       -0.83376
H          2.68723        0.43966        0.14759
H          4.98916        1.09387        0.10808
H          4.65223       -1.35719       -0.45065
H          6.19374       -0.72051       -1.03913
H          3.84708       -0.89815       -2.63908
H          4.80621        1.53243       -2.94576
H          6.25461        1.74845       -1.95334
H          3.81387        3.14624       -1.85836
