19

O          0.99364        0.02278       -0.04423
C          2.41514       -0.02604       -0.11305
C          2.95986       -1.29378        0.55637
C          3.23901       -0.86812        1.99723
C          3.78920        0.55135        1.85405
C          3.00167        1.10867        0.70175
C          3.35303        2.42520        0.04753
N          2.20950        2.32951        0.93872
H          0.65707       -0.78794       -0.46107
H          2.71265        0.02216       -1.16581
H          3.90507       -1.58477        0.08260
H          2.26813       -2.13986        0.51031
H          3.94072       -1.53624        2.50422
H          2.30290       -0.85298        2.56847
H          4.85407        0.52071        1.59656
H          3.67123        1.11894        2.78257
H          3.12996        2.57700       -1.00090
H          4.20171        2.98116        0.42639
H          1.31855        2.20199        0.44550
