15

O          1.04115       -0.35025        0.05427
C          2.21630       -0.06000       -0.12601
C          3.00200       -0.62999       -1.25260
C          2.78541       -2.06396       -1.67338
C          2.32820       -0.94405       -2.57648
C          3.03917       -0.72320       -3.87986
C          2.45298        0.49540       -4.45238
N          1.99782        1.45330       -4.92192
H          2.75641        0.62999        0.54328
H          4.02663       -0.27299       -1.28285
H          2.01719       -2.64081       -1.16604
H          3.65287       -2.64863       -1.95739
H          1.24968       -0.82135       -2.65429
H          2.87725       -1.57778       -4.54455
H          4.11801       -0.60180       -3.73698
