21

C          1.73056        0.15614        0.65678
O          2.36088        1.43160        0.68521
C          2.91659        1.93221       -0.55878
C          1.80842        2.17977       -1.57799
C          3.80243        3.19814       -0.39257
C          5.05077        2.36723       -0.69970
N          5.69684        2.89498       -1.89928
C          4.16877        1.16984       -1.07761
H          2.09855       -0.43767        1.49665
H          1.93593       -0.38643       -0.27139
H          0.65166        0.29459        0.76311
H          2.21393        2.49056       -2.54730
H          1.13645        2.97480       -1.22771
H          1.20147        1.28563       -1.74963
H          3.78947        3.62721        0.61556
H          3.57793        4.01146       -1.09397
H          5.71454        2.21882        0.15669
H          5.12736        2.88297       -2.74531
H          6.56589        2.42081       -2.13921
H          4.41914        0.26505       -0.51130
H          4.12953        0.89584       -2.13750
