16

O          2.62343       -0.41993       -1.26530
C          2.41456        0.10023        0.04685
C          3.09148       -0.77226        1.10705
N          4.55159       -0.74104        1.01507
C          5.25787        0.25737        1.67218
O          4.76571        1.21594        2.25916
N          5.14332       -1.80851        0.37515
C          6.24896       -1.61326       -0.25914
H          2.18813        0.18749       -1.88662
H          1.33391        0.11375        0.22401
H          2.78821        1.12813        0.07709
H          2.76362       -1.81340        1.01217
H          2.79962       -0.41354        2.10099
H          6.34686        0.11718        1.64173
H          6.72160       -2.46135       -0.77862
H          6.75735       -0.63953       -0.35482
