14

C          1.13865        0.19914        0.13759
N          2.41961        0.10741        0.01943
N          3.14498        0.76876        0.96421
C          4.53219        0.76271        0.89402
O          5.20618        0.19550        0.03844
C          5.18117        1.52073        2.01484
C          4.82127        2.96928        1.98312
O          3.82285        3.40764        2.55304
H          0.49064       -0.31372       -0.59215
H          0.63247        0.76653        0.93688
H          2.66651        1.32787        1.66866
H          6.27096        1.43326        1.94136
H          4.87939        1.08745        2.97376
H          5.44689        3.61604        1.34481
