16

C          1.26957        0.49110        0.48060
C          2.63283       -0.06213        0.09581
C          3.03863       -1.20284        0.96366
N          3.76057       -0.99473        2.06822
S          3.99695       -2.49055        2.76937
C          3.11807       -3.31624        1.54792
C          2.92975       -4.78633        1.57070
N          2.65395       -2.49675        0.62797
H          0.99485        1.31941       -0.17970
H          1.27033        0.86207        1.51126
H          0.49463       -0.27915        0.40246
H          3.38072        0.73763        0.15282
H          2.60689       -0.39468       -0.94850
H          3.36340       -5.25025        2.46215
H          3.39849       -5.23754        0.69061
H          1.86219       -5.02697        1.55002
