16

O          2.81163       -1.28962       -0.63685
C          2.30779       -0.06544       -0.08236
C          2.75317        0.07039        1.38134
C          2.28513        1.33644        2.03777
C          0.82460        1.62022        2.28810
N          1.72894        1.29620        3.38637
C          2.76222        1.07823       -0.89797
N          3.10568        2.00163       -1.51451
H          2.96457       -1.92493        0.08244
H          1.21517       -0.12355       -0.12698
H          3.84852        0.02412        1.44064
H          2.39829       -0.80790        1.93688
H          2.93313        2.18199        1.82632
H          0.07536        0.87889        2.04318
H          0.49443        2.65163        2.23759
H          1.56720        0.34541        3.72291
