15

O          1.43373       -1.02400       -0.54163
C          2.28220       -0.18098       -0.24637
C          2.94380       -0.00433        1.12715
C          3.81313       -1.19270        1.70403
N          4.41717       -0.07272        2.57209
C          4.39913        0.61858        1.20143
C          5.30579       -0.23887        0.39865
C          4.90710       -1.46911        0.73927
H          2.61798        0.53400       -1.01630
H          2.22338        0.42593        1.84010
H          3.34189       -2.02147        2.23064
H          5.35123       -0.28230        2.92337
H          4.54056        1.69838        1.19325
H          6.08799        0.06033       -0.27971
H          5.27633       -2.42614        0.40744
