22

C          0.83088        0.02043       -0.27858
C          2.32078        0.01962       -0.01166
C          2.68987       -0.03674        1.45392
N          2.17372        1.13623        2.13846
C          3.19626       -0.78291       -0.95499
C          3.19892        0.72108       -1.05154
C          4.45869        1.46525       -0.74518
N          4.18210        2.89328       -0.78221
H          0.31986       -0.70556        0.36245
H          0.60329       -0.23772       -1.31834
H          0.40952        1.01246       -0.08411
H          3.77253       -0.10242        1.60336
H          2.25767       -0.93911        1.90105
H          2.59691        1.96743        1.72300
H          2.46701        1.11400        3.11241
H          2.71904       -1.33655       -1.75737
H          4.07215       -1.27665       -0.55825
H          2.70526        1.13223       -1.92864
H          5.21784        1.22285       -1.49845
H          4.87357        1.20500        0.23058
H          3.89508        3.15207       -1.72663
H          5.05015        3.40263       -0.61393
