14

N          1.17096        0.41047        0.71712
C          2.35916        0.08917        0.11040
N          2.90694       -1.06697        0.31696
C          3.03716        1.11480       -0.84321
O          2.10389        1.41959       -1.91126
C          1.99280        2.78215       -1.77780
C          2.69709        3.26293       -0.77521
O          3.39234        2.29693       -0.09016
H          0.56520       -0.36186        0.96044
H          0.67287        1.18360        0.28700
H          2.34233       -1.58824        0.99176
H          3.94568        0.67810       -1.27667
H          1.35237        3.28562       -2.47901
H          2.79793        4.27150       -0.41747
