17

C          1.07860        0.36644        0.15323
C          2.52945       -0.07322        0.02480
C          2.98822       -0.86326        1.21333
C          3.57843       -0.32485        2.34081
S          3.96773       -1.50864        3.50995
C          3.35557       -2.76778        2.53417
N          3.37178       -4.04980        2.94815
C          2.87235       -2.28842        1.33767
H          0.77769        0.94596       -0.72491
H          0.93179        0.99140        1.04080
H          0.41001       -0.49704        0.23722
H          3.16719        0.81048       -0.09973
H          2.64755       -0.67511       -0.88440
H          3.79976        0.71476        2.53868
H          3.55058       -4.23936        3.92965
H          2.78958       -4.74406        2.49191
H          2.44615       -2.92882        0.57564
