19

N          1.03455        0.03615       -0.05601
C          2.48718       -0.01041       -0.04890
C          3.04940       -1.13545        0.84240
C          3.90378       -0.29018        1.79382
C          4.59002        0.74679        0.85498
C          3.10488        1.19579        0.67156
C          2.96303        0.88957        2.20190
O          3.43984        1.85663        3.16279
H          0.66345       -0.81855       -0.47010
H          0.71497        0.80245       -0.64770
H          2.85907       -0.09764       -1.07656
H          3.65351       -1.84305        0.26494
H          2.27749       -1.69564        1.38163
H          4.50081       -0.78074        2.56036
H          5.09624        0.34536       -0.02989
H          5.27250        1.46236        1.32288
H          2.91569        2.20472        0.30644
H          1.96068        0.57493        2.51579
H          4.27094        2.22022        2.82320
