16

O          1.12668       -0.09528       -0.30002
C          2.33432       -0.08434       -0.14501
N          3.18189       -1.14556        0.02160
N          4.52097       -0.77692        0.27691
C          4.62825        0.67376       -0.00639
C          3.18746        1.11761       -0.06978
C          2.81403        2.40753       -0.76510
C          2.73959        2.32215        0.73303
H          2.81467       -2.07735        0.18338
H          5.13630       -1.28466       -0.36309
H          5.11562        0.82535       -0.97599
H          5.20364        1.17607        0.77596
H          1.87763        2.43995       -1.31288
H          3.60054        3.01260       -1.19918
H          1.75574        2.29055        1.19023
H          3.47605        2.86468        1.31287
