12

C          1.18110        0.20663       -0.71301
C          2.25455        0.10849        0.08021
C          2.87675        1.31642        0.67224
N          2.47982        2.54465        0.50444
S          3.50371        3.55693        1.38030
N          4.49938        2.35594        1.99237
C          4.10279        1.12180        1.57258
O          4.59608        0.04503        1.84142
H          0.72684       -0.68005       -1.14319
H          0.72933        1.16576       -0.95267
H          2.70072       -0.85164        0.31603
H          5.27595        2.50321        2.62012
