21

C          0.91164        0.05713        0.10090
C          2.43303       -0.01584        0.10217
C          3.06143        1.09863        0.94595
N          4.41633        0.63420        1.30461
C          5.37938        0.91385        0.23956
C          4.25914       -0.81964        1.51548
C          3.04454       -1.23986        0.73094
C          2.58804       -2.49766        0.65590
H          0.57572        1.02315       -0.29142
H          0.50124       -0.05829        1.10974
H          0.47919       -0.72539       -0.53109
H          2.79534        0.06207       -0.93083
H          2.49386        1.25214        1.87377
H          3.06995        2.06039        0.42000
H          5.46422        1.99448        0.08072
H          5.11993        0.44603       -0.71631
H          6.37570        0.56255        0.53057
H          4.07883       -0.99396        2.58299
H          5.15236       -1.38553        1.22691
H          3.09796       -3.31040        1.16470
H          1.70038       -2.75040        0.08567
