20

C          0.87041       -0.14750        0.04279
C          2.37087        0.09207        0.20136
C          2.80112        1.44450       -0.37826
C          3.71712        1.38065       -1.59960
C          5.09498        1.97425       -1.31135
C          3.86639       -0.00154       -2.17225
N          3.56202       -1.11496       -1.57968
N          3.16048       -1.02721       -0.29993
H          0.30654        0.66527        0.51900
H          0.56645       -1.07838        0.53479
H          0.57099       -0.19846       -1.00908
H          2.55916        0.13066        1.28157
H          3.28287        2.02846        0.41674
H          1.91283        2.02823       -0.65502
H          3.26894        1.98242       -2.39985
H          5.61225        1.42032       -0.52169
H          5.00259        3.01852       -0.99434
H          5.72796        1.95205       -2.20447
H          4.28803       -0.06681       -3.18953
H          2.75298       -1.91798       -0.00433
