16

N          1.65396       -0.26394       -0.72732
C          2.91482        0.12520       -0.07447
C          3.74573       -0.96003        0.57131
C          4.22045       -0.31458       -0.70027
C          5.11413        0.86352       -0.68868
O          6.24841        0.87449       -1.13107
N          4.44226        1.90822       -0.10931
C          3.11750        1.57452        0.35146
H          1.18250       -1.00363       -0.20735
H          0.99360        0.51134       -0.77791
H          3.40765       -1.98783        0.50828
H          4.27741       -0.73371        1.48888
H          4.19246       -0.88819       -1.61710
H          4.87831        2.81594       -0.02706
H          2.40580        2.25966       -0.11669
H          3.08307        1.68597        1.43992
