16

O          1.59456        0.06015        0.71066
N          2.75254       -0.03270       -0.07799
C          3.57743        1.15697        0.05028
C          4.78835        1.06337       -0.88715
C          5.44435       -0.28969       -0.85586
C          4.79769       -1.40011       -0.46181
C          3.35001       -1.28977       -0.07317
N          2.70150       -2.38018        0.22230
H          0.89165       -0.15281        0.06817
H          3.91389        1.24839        1.08643
H          2.98942        2.04680       -0.19399
H          5.51196        1.83087       -0.59832
H          4.48267        1.27416       -1.91712
H          6.47740       -0.35522       -1.18667
H          5.27557       -2.37050       -0.45273
H          3.31504       -3.19398        0.16988
