15

N          1.25051        0.00042        0.11681
C          2.60850       -0.02904        0.08276
O          3.24074       -0.74501       -0.67804
C          3.28702        0.84949        1.00434
C          3.93895        1.63107        1.81930
C          4.69895        2.54222        2.76936
C          4.92110        3.91448        2.13893
O          3.68276        4.58036        1.89939
H          0.74772       -0.61524       -0.50708
H          0.74050        0.57902        0.76727
H          5.66048        2.08137        3.01773
H          4.11138        2.64049        3.68894
H          5.46607        3.84304        1.19177
H          5.50145        4.54442        2.81978
H          3.21837        4.07620        1.20792
