19

N          1.62583       -0.62120       -1.04132
C          2.37407       -0.01694        0.05734
C          2.84927        1.39779       -0.22497
C          1.85920        2.45911       -0.29105
C          0.90570        2.56102       -1.22328
C          4.16879        1.67457       -0.29179
C          4.81339        3.00720       -0.50379
O          5.62176        3.28672        0.62971
H          1.39729       -1.58183       -0.79366
H          2.23050       -0.66916       -1.85893
H          3.22819       -0.66902        0.27842
H          1.75127       -0.01413        0.95889
H          1.94427        3.24224        0.46084
H          0.79011        1.82506       -2.01167
H          0.22089        3.40334       -1.22218
H          4.88238        0.85778       -0.19595
H          4.10734        3.83086       -0.63809
H          5.46061        2.97115       -1.38469
H          5.01410        3.39296        1.38144
