17

C          0.96195        0.02321       -0.16102
C          2.47846       -0.03254       -0.11863
C          3.07110        1.25511        0.44059
S          4.85341        1.14114        0.56869
O          5.19309        0.06465        1.47390
O          5.45549        1.25586       -0.74099
N          5.20552        2.59824        1.39685
O          6.65180        2.77207        1.34498
H          0.55722       -0.91504       -0.55881
H          0.61785        0.84051       -0.80316
H          0.54569        0.17406        0.83978
H          2.86867       -0.21743       -1.12638
H          2.78598       -0.88540        0.49917
H          2.69154        1.44030        1.45070
H          2.83856        2.11125       -0.19957
H          4.91721        2.52752        2.37893
H          6.91647        2.55583        0.42392
