18

C          0.94030       -0.03809        0.17278
C          2.46158       -0.15801        0.09319
C          2.90412       -1.61948        0.18659
N          2.98256        0.49247       -1.12587
O          2.45757       -0.10070       -2.30703
C          4.24669        1.03464       -1.27981
N          4.62968        1.19756       -2.58040
S          5.26829        1.56250       -0.07451
H          0.57164       -0.42135        1.13020
H          0.44658       -0.59958       -0.62776
H          0.62960        1.00820        0.08548
H          2.87393        0.37111        0.95885
H          2.50667       -2.21192       -0.64489
H          2.55233       -2.07169        1.11979
H          3.99533       -1.70398        0.15975
H          1.83276        0.59492       -2.58704
H          4.18827        0.57599       -3.24802
H          5.58987        1.46499       -2.75465
