15

O          1.39343        0.10380        0.83985
C          2.39866        0.08711        0.13761
C          3.12746       -1.21403       -0.23400
N          4.29372       -1.05349       -1.16000
C          5.15473        0.06033       -0.63339
C          4.08681        1.02284       -1.21366
C          3.89570       -0.10736       -2.25857
O          2.94255        1.23837       -0.35843
H          2.40329       -1.88529       -0.70742
H          3.48245       -1.67801        0.69344
H          6.13868        0.12182       -1.11441
H          5.30091        0.08078        0.45135
H          4.46757        1.97089       -1.60220
H          4.60175       -0.08171       -3.09801
H          2.88576       -0.23846       -2.66180
