16

N          1.26522       -0.00834       -0.27575
C          2.61684       -0.06869       -0.14909
O          3.14108       -0.53705        0.85165
C          3.36848        0.48138       -1.30206
C          4.70720        0.47692       -1.25336
N          5.70101        0.90273       -2.11633
C          5.44796        0.91941       -3.55872
C          5.53217        2.19604       -2.78589
H          0.71995       -0.36615        0.49710
H          0.78088        0.37314       -1.07393
H          2.81768        0.86890       -2.14701
H          5.19767        0.06300       -0.37217
H          4.48659        0.55887       -3.89083
H          6.30852        0.60549       -4.13477
H          4.62962        2.74292       -2.55667
H          6.45134        2.76602       -2.81909
