18

C          1.00695        0.07421        0.00613
C          2.49162       -0.00992        0.04542
C          3.36721        1.05726        0.09002
N          4.64373        0.56967        0.12406
C          4.60783       -0.79736        0.10327
C          3.28667       -1.20610        0.04652
C          2.80869       -2.62051       -0.03091
N          2.03792       -2.93331        1.16478
H          0.67327        1.11397       -0.07877
H          0.57377       -0.34223        0.92085
H          0.61161       -0.47710       -0.85259
H          3.18441        2.12431        0.09873
H          5.48296        1.13395        0.15285
H          5.52627       -1.36838        0.11774
H          3.66010       -3.30691       -0.10439
H          2.18985       -2.76000       -0.92303
H          2.62281       -2.75710        1.97966
H          1.82309       -3.92703        1.16779
