14

O          1.53867       -0.12554       -1.16280
C          2.38800        0.00061       -0.28412
N          2.92965        1.24708       -0.05209
C          3.52217        1.84551        1.03722
N          3.81096        1.36187        2.18394
C          3.50070       -0.02447        2.50926
C          3.87885       -0.96213        1.38067
O          2.78984       -1.06326        0.45209
H          2.62556        1.88694       -0.77326
H          3.75656        2.90481        0.83388
H          2.44043       -0.11471        2.77417
H          4.08653       -0.28645        3.39606
H          4.03270       -1.97077        1.77910
H          4.79658       -0.67088        0.85687
