13

O          2.09504       -0.41621       -1.26366
C          2.63308        0.00014       -0.24460
N          2.93304        1.33708       -0.06537
C          3.52521        1.87178        1.05062
C          3.89132        1.09054        2.07604
C          3.70571       -0.36486        2.06992
O          4.33621       -1.20528        1.09067
C          2.94347       -0.91542        0.88462
H          2.69423        1.93696       -0.84597
H          3.68756        2.94505        1.04901
H          4.36657        1.53494        2.94578
H          3.50794       -0.80532        3.04022
H          2.23717       -1.71755        1.05062
