19

C          1.03929       -0.23066       -0.13005
O          2.43828       -0.31267        0.12100
C          2.90189        0.65968        1.07992
C          2.40516        0.32053        2.49814
O          2.66820       -1.04316        2.82728
C          4.41263        0.73068        1.03417
C          5.28536       -0.49854        1.08722
N          5.13556        0.25733       -0.15454
H          0.82946       -0.74859       -1.06860
H          0.70447        0.80712       -0.22208
H          0.48800       -0.73532        0.66900
H          2.53013        1.65064        0.79032
H          1.32123        0.45791        2.56489
H          2.88054        0.95864        3.25154
H          2.55265       -1.54922        1.99969
H          4.79850        1.63681        1.48749
H          4.83078       -1.48049        1.11378
H          6.24473       -0.41710        1.58283
H          4.46696       -0.21618       -0.77317
