12

C          0.97241       -0.00972       -0.18675
C          2.29684       -0.00065       -0.02364
N          3.07757       -1.10443        0.29329
C          4.30581       -0.70897        0.43663
N          4.62646        0.64606        0.20710
S          3.21843        1.49297       -0.13610
O          2.97264        2.37105        0.98459
O          3.31574        1.96996       -1.49738
H          0.41614       -0.93451       -0.09085
H          0.42030        0.89826       -0.40724
H          5.13719       -1.36174        0.74364
H          5.41071        1.13462        0.62125
