17

O          1.01603       -0.04580       -0.15480
C          2.23459       -0.05817       -0.07166
C          3.11815       -1.26554       -0.10835
C          4.43640       -0.71590        0.41999
N          4.50525        0.70111        0.03201
C          3.09768        1.15254       -0.02669
C          2.73339        2.41633       -0.75005
C          2.68970        2.37085        0.75237
H          3.20846       -1.60447       -1.14472
H          2.72303       -2.06027        0.52818
H          5.29539       -1.27888        0.04205
H          4.45537       -0.77889        1.51486
H          4.91376        0.76341       -0.90223
H          1.78581        2.45099       -1.27674
H          3.52027        2.99948       -1.21218
H          1.71660        2.37120        1.23040
H          3.45442        2.90879        1.29997
