19

N          1.05101       -0.00766        0.16782
C          2.51106       -0.05334        0.05931
C          3.12892        1.00847        0.99079
C          4.18283       -0.04899        1.38607
C          3.14274       -1.16101        1.00129
O          2.32941       -1.62623        2.10901
C          3.73145       -2.30127        0.23504
C          4.68882       -3.07083        0.76902
H          0.61805        0.75868       -0.34562
H          0.66021        0.00469        1.10477
H          2.89032       -0.03470       -0.96836
H          2.50917        1.33151        1.83636
H          3.52637        1.89767        0.49338
H          4.48461       -0.02366        2.43764
H          5.08613       -0.01879        0.76390
H          1.95506       -0.82483        2.50281
H          3.33822       -2.51491       -0.75184
H          5.07053       -2.89420        1.76976
H          5.09589       -3.91204        0.21679
