21

C          1.04504        0.00968        0.02707
C          2.55867        0.00323       -0.01371
C          3.29574        1.05891        0.83878
N          4.26217        0.01953        1.27181
C          5.44020        0.01638        0.39263
C          6.41498       -1.04828        0.80963
C          6.84236       -2.04141        0.01751
C          3.28860       -1.02834        0.87378
H          0.65063        0.86022       -0.53830
H          0.66583        0.07825        1.05147
H          0.64536       -0.90536       -0.42193
H          2.91145       -0.01793       -1.05451
H          2.70510        1.45559        1.67465
H          3.70529        1.91149        0.28682
H          5.95566        0.98017        0.49541
H          5.18388       -0.08601       -0.66954
H          6.79334       -0.98043        1.82644
H          6.48958       -2.14908       -1.00319
H          7.55304       -2.77484        0.38450
H          2.69485       -1.39239        1.72241
H          3.68447       -1.90281        0.34729
