16

N          0.98128        0.17618       -0.06388
N          2.32750        0.08868        0.01280
C          2.93938        1.08962        0.56484
C          2.36503        2.31568        1.16884
C          3.39975        3.13154        1.39907
C          4.72712        2.59613        0.95101
C          4.45900        1.11530        0.67345
O          4.93411        0.31586        1.74901
H          0.61787       -0.66018       -0.52810
H          0.55375        0.17667        0.86341
H          1.31902        2.48940        1.35030
H          3.29294        4.12236        1.82116
H          5.49328        2.74374        1.71795
H          5.02886        3.11916        0.03669
H          4.92992        0.77928       -0.25432
H          4.47897        0.60965        2.55676
