21

C          2.67585        2.63493       -0.03816
O          2.29529        1.96948        1.15794
C          2.87118        0.67287        1.25065
O          4.28742        0.67926        1.38857
C          4.77124        1.45891        2.49640
C          4.37101        0.84224        3.83594
C          6.31021        1.51070        2.39071
N          6.75070        2.16211        1.14939
H          2.19981        3.61930       -0.04623
H          2.33485        2.07547       -0.91424
H          3.75970        2.77751       -0.08023
H          2.61750        0.09182        0.35626
H          2.41525        0.14943        2.09665
H          4.38308        2.48246        2.43175
H          4.62940       -0.22112        3.87139
H          3.29100        0.91632        3.99607
H          4.86165        1.35523        4.66941
H          6.71575        0.49168        2.39901
H          6.73538        2.05465        3.24036
H          6.30631        1.66696        0.37344
H          7.75453        2.02916        1.03876
