18

C          1.18565        0.06227       -0.10380
C          2.46788       -0.24074        0.11963
C          3.05773       -1.56719        0.47243
N          4.25933       -1.25397        1.26198
C          4.78162        0.02167        0.70455
C          4.84282        1.12116        1.77777
N          3.49181        1.58074        1.40112
C          3.53327        0.77373        0.16974
H          0.41584       -0.70422       -0.07401
H          0.87027        1.08337       -0.28557
H          3.34972       -2.09317       -0.44428
H          2.37109       -2.19741        1.04386
H          4.90515       -2.03685        1.24058
H          5.62997       -0.07441        0.02268
H          5.61858        1.87113        1.57981
H          4.94167        0.79544        2.81784
H          3.41092        2.58195        1.24753
H          3.69660        1.34269       -0.75151
