15

N          3.80071        0.94564       -0.26483
C          2.66195        0.45978        0.50216
C          2.08087       -0.78633       -0.08443
C          2.10771       -2.01479        0.42196
C          1.34547       -2.91395       -0.46777
C          0.88106       -1.92403       -1.50842
O          0.15851       -2.20419       -2.45475
O          1.37001       -0.65829       -1.27683
H          4.53530        0.24088       -0.26580
H          3.51782        1.06954       -1.23668
H          1.89065        1.23718        0.53147
H          2.97633        0.28854        1.53734
H          2.58600       -2.31231        1.34219
H          0.48934       -3.35501        0.04615
H          1.98563       -3.67414       -0.92279
