16

C          2.77523        0.07698       -1.24549
N          2.48359       -0.10493        0.18072
S          3.05293       -1.53315        0.89251
O          2.55969       -1.50244        2.25418
O          2.65588       -2.60469        0.00251
C          4.77813       -1.40874        0.86499
C          5.42749       -0.80963        1.86830
N          6.78364       -0.61104        1.96010
H          2.41232        1.06047       -1.55652
H          2.26169       -0.67636       -1.84849
H          3.85157        0.04117       -1.43514
H          1.49591        0.00509        0.41623
H          5.28270       -1.81103        0.00019
H          4.88569       -0.40702        2.72525
H          7.34830       -1.19182        1.34465
H          7.13566       -0.59153        2.91575
