18

N          1.10510       -0.20454        0.03454
N          2.44135       -0.00531       -0.00863
C          3.10258       -1.00743       -0.50001
C          4.61187       -0.97626       -0.54330
C          5.19526       -1.68670        0.66349
C          6.54307       -2.11453        0.14673
C          6.23740       -2.46427       -1.29417
O          5.11146       -1.66737       -1.69405
H          0.64779        0.63506        0.39779
H          0.71100       -0.35700       -0.89588
H          2.61080       -1.93886       -0.83629
H          4.96000        0.06267       -0.59282
H          4.59872       -2.56846        0.92983
H          5.25221       -1.04218        1.54536
H          6.98449       -2.94469        0.70459
H          7.24004       -1.26875        0.18644
H          5.95777       -3.51770       -1.39744
H          7.08333       -2.26172       -1.95759
