11

N          1.13901       -0.14868        0.01065
C          2.47257       -0.02550        0.03438
N          3.07982        1.15441        0.04628
S          4.71997        0.91590        0.06428
C          4.64988       -0.78605        0.06113
C          3.32429       -1.16964        0.04609
C          5.78542       -1.63997        0.07076
N          6.70423       -2.34931        0.07860
H          0.56414        0.68578        0.05794
H          0.64240       -1.02787        0.07403
H          2.98685       -2.19751        0.03966
