15

C          3.02370       -0.21416        1.17780
O          2.32510       -0.13365       -0.05771
C          2.97909        0.70531       -0.98340
C          2.15960        0.74196       -2.25123
C          1.87620        1.99210       -2.62256
N          2.40222        2.87278       -1.73375
C          3.05865        2.22878       -0.69561
O          3.59216        2.77879        0.25518
H          2.60548       -1.04488        1.75326
H          2.88537        0.70398        1.75512
H          4.08957       -0.40671        1.01903
H          3.98233        0.32830       -1.21321
H          1.84877       -0.14984       -2.77480
H          1.31123        2.32353       -3.48286
H          2.31172        3.87789       -1.77345
