11

O          1.01651       -0.03355       -0.09574
S          2.46329       -0.00124       -0.03396
O          3.30574        0.82226       -0.87533
C          3.09797       -0.15900        1.62814
C          2.59131        1.03627        2.41873
C          2.15669        2.06156        3.09690
C          2.81315       -1.61405       -0.75317
N          3.05781       -2.67751       -1.16258
H          4.18920       -0.17672        1.58892
H          2.70758       -1.08354        2.06077
H          1.79749        2.90146        3.64773
