21

N          2.60812       -0.61518       -1.32698
C          2.27078       -0.14418        0.01521
C          2.86683       -0.99797        1.15770
C          2.34102       -2.44427        1.10212
O          2.77059       -3.22780        2.21311
C          4.38247       -0.96092        1.14033
C          5.11734        0.33117        1.40942
C          5.16933       -0.77945        2.41787
H          2.27297        0.05686       -2.01595
H          2.12666       -1.48962       -1.52905
H          1.17995       -0.10902        0.11310
H          2.62876        0.88688        0.11056
H          2.52793       -0.55651        2.10538
H          2.67283       -2.96203        0.19749
H          1.24568       -2.44645        1.10991
H          2.88145       -2.63362        2.97414
H          4.80035       -1.60931        0.37637
H          4.54739        1.21780        1.66001
H          6.00291        0.53081        0.81639
H          4.64157       -0.62948        3.35232
H          6.10207       -1.32240        2.52081
