15

O          1.23747       -0.52905       -0.64031
C          2.37843       -0.96410       -0.49450
C          3.09004       -0.99181        0.83267
C          4.56090       -0.80826        0.65822
C          5.25027        0.38862        0.60185
N          6.58394        0.11627        0.44243
C          6.76607       -1.23944        0.39112
C          5.53450       -1.83921        0.52363
H          2.89121       -1.46778       -1.33224
H          2.88772       -1.96083        1.30083
H          2.67830       -0.20552        1.47418
H          4.90540        1.41275        0.66744
H          7.31942        0.80892        0.37756
H          7.75528       -1.66113        0.27102
H          5.35696       -2.90790        0.52821
