19

C          2.68224        0.43872       -0.42898
O          1.83510       -0.66249       -0.09440
C          2.36658       -1.45264        1.00372
C          2.33750       -0.75359        2.34513
N          0.97298       -0.24935        2.57001
C          2.02370       -2.91552        1.07469
C          3.35348       -2.50719        0.53028
O          4.51959       -2.69727        1.34127
H          2.41306        0.79621       -1.42226
H          3.73814        0.14266       -0.43790
H          2.53594        1.25233        0.28868
H          3.04092        0.08337        2.37017
H          2.60353       -1.43121        3.16169
H          0.32293       -0.93412        2.17485
H          0.83880        0.56994        1.97706
H          1.24832       -3.27473        0.40845
H          2.02390       -3.41254        2.04465
H          3.45710       -2.67207       -0.54106
H          5.33177       -2.44584        0.85181
