19

N          0.96071        0.13275        0.33182
C          2.41962        0.14817        0.19370
C          3.06264       -0.72462       -0.84833
C          4.42420       -1.32193       -0.68073
C          5.35012       -0.66136       -1.69587
C          5.44241        0.85198       -1.47245
O          4.32788        1.42240       -0.78243
C          3.06117        0.77041       -1.02286
H          0.66039       -0.69423        0.84804
H          0.49814        0.08586       -0.57420
H          2.94885        0.28247        1.13470
H          2.43893       -1.29984       -1.52091
H          4.38188       -2.40264       -0.85388
H          4.80489       -1.16909        0.33644
H          4.95132       -0.83778       -2.70411
H          6.34959       -1.10874       -1.67713
H          5.57132        1.37416       -2.42651
H          6.32695        1.06999       -0.86425
H          2.41712        1.19556       -1.78483
