20

C          0.89629        0.04666        0.01159
C          2.41138        0.01373        0.21579
C          3.00942       -1.26936       -0.35732
C          3.88998       -1.07036       -1.55490
N          4.10662        0.04197       -2.18294
N          3.43226        1.13642       -1.75425
C          3.99261        2.40113       -2.25111
C          3.10779        1.26673       -0.32771
H          0.43132       -0.84037        0.45820
H          0.62519        0.07909       -1.04681
H          0.46114        0.92171        0.50570
H          2.56756       -0.00326        1.30260
H          2.23903       -1.99815       -0.63429
H          3.63165       -1.75684        0.40280
H          4.40970       -1.97007       -1.92895
H          4.36582        2.28735       -3.27593
H          4.83341        2.73807       -1.63363
H          3.22866        3.18436       -2.27085
H          2.46074        2.13977       -0.16746
H          4.02908        1.43530        0.24352
