19

N          1.13228        0.25607       -0.56416
C          2.24435        0.25959        0.36879
C          2.72444        1.66901        0.66019
C          3.56142        2.18146       -0.50067
O          2.67880        2.48892       -1.60313
C          2.14847        3.05458        1.17632
C          2.14087        1.95221        2.09193
O          3.04109        1.95632        3.20556
H          0.81031       -0.70932       -0.65372
H          1.50273        0.48526       -1.49039
H          3.07333       -0.33613       -0.03593
H          1.95374       -0.26889        1.28837
H          4.26039        1.42555       -0.87212
H          4.14227        3.08460       -0.28524
H          1.75549        2.53447       -1.27251
H          1.23019        3.42148        0.74819
H          2.85347        3.86562        1.40291
H          1.13502        1.59452        2.30694
H          3.95779        2.08786        2.94943
