17

O          1.81493       -0.59227       -0.11725
C          2.59459        0.32897       -0.32657
C          2.86621        1.34964        0.71886
C          4.04612        1.12994        1.63415
N          4.15601        2.08865        0.54042
C          3.86781        3.48118        0.94323
C          2.36535        3.66276        0.76207
C          1.78488        2.30954        1.13814
H          3.10800        0.45256       -1.29478
H          4.62506        0.21934        1.51875
H          4.00543        1.49552        2.65314
H          4.42223        4.18232        0.31153
H          4.16429        3.67300        1.98245
H          2.14735        3.87677       -0.29224
H          1.95764        4.47788        1.36639
H          0.83508        2.12964        0.62485
H          1.60879        2.24307        2.21772
