16

O          1.86610       -0.05643       -1.41616
C          2.61415        0.07888       -0.43628
C          3.09987       -1.16404        0.30360
N          4.12023       -0.98398        1.34014
C          3.65153       -0.15765        2.43258
C          3.84335        1.28765        2.13413
C          3.55985        1.90545        0.98576
N          2.97623        1.35363       -0.11771
H          3.54483       -1.81466       -0.46255
H          2.23096       -1.69449        0.70888
H          4.95444       -0.56941        0.92843
H          4.25096       -0.40436        3.31712
H          2.60910       -0.36296        2.70987
H          4.25403        1.88342        2.94656
H          3.73834        2.97690        0.90340
H          2.64417        2.00688       -0.82167
