13

O          1.07732        0.01667        0.04586
C          2.43692        0.10456        0.04745
C          3.09246        1.33050        0.04813
C          4.48267        1.33352        0.04990
O          5.19877        2.49258        0.05047
C          5.15942        0.12124        0.05104
N          4.54265       -1.08351        0.05034
C          3.18936       -1.06223        0.04850
H          0.69921        0.91131        0.04619
H          2.53479        2.25882        0.04736
H          4.58650        3.24654        0.04808
H          6.24480        0.08912        0.05255
H          2.70799       -2.03557        0.04790
