14

N          1.14186        0.17532       -0.03286
C          2.48633       -0.19318        0.04206
C          2.86179       -1.35440        0.71901
C          4.16512       -1.83260        0.61751
C          5.04462       -1.14927       -0.19640
O          6.29831       -1.63967       -0.42824
N          4.74150       -0.03406       -0.87118
C          3.46507        0.40818       -0.74229
H          0.56857       -0.14216        0.74059
H          0.98333        1.15331       -0.26067
H          2.13694       -1.90251        1.31591
H          4.46789       -2.72856        1.15237
H          6.18207       -2.59846       -0.54123
H          3.24039        1.28765       -1.34063
