16

C          0.99595       -0.03215        0.00053
C          2.48913       -0.06058       -0.00249
C          3.23491        0.56964       -0.92394
C          4.66210        0.52810       -0.91105
C          5.54511       -0.09846       -0.04486
C          6.91382        0.10659       -0.38214
C          7.05041        0.88956       -1.50324
S          5.54086        1.36929       -2.13736
H          0.62017       -0.50425        0.91409
H          0.59542       -0.58838       -0.85224
H          0.61842        0.99448       -0.02143
H          2.94738       -0.63145        0.79939
H          2.74063        1.12979       -1.71637
H          5.22952       -0.68892        0.80626
H          7.75070       -0.30092        0.17102
H          7.96817        1.20370       -1.98188
