17

O          2.34810        0.32834        1.08060
C          2.22266       -0.06680       -0.08267
C          3.18998       -1.03154       -0.76753
N          2.76737       -1.28329       -2.15230
C          2.09698       -2.55750       -2.42491
C          2.43483       -3.78818       -1.56542
C          3.04611       -3.48022       -0.24401
C          3.37537       -2.23205        0.10701
H          1.39387        0.30649       -0.70278
H          4.14495       -0.49377       -0.82698
H          3.58058       -1.19692       -2.75971
H          2.31173       -2.82199       -3.47003
H          1.01336       -2.39155       -2.39800
H          3.11916       -4.44666       -2.11030
H          1.51209       -4.35880       -1.39756
H          3.21197       -4.30042        0.45000
H          3.80422       -2.04865        1.09106
