16

C          1.06421       -0.12200        0.19518
C          2.57447       -0.03859       -0.01547
C          3.17015       -1.39044       -0.41017
O          2.66922       -1.76259       -1.70023
N          2.98552       -0.76389       -2.64777
C          2.98246        0.56030       -2.35957
S          3.14034        1.70758       -3.55229
N          2.87516        0.93007       -1.05402
H          0.81918       -0.84124        0.98300
H          0.53991       -0.42253       -0.71855
H          0.66494        0.85440        0.49123
H          3.04602        0.31727        0.90702
H          2.88669       -2.17030        0.30386
H          4.26559       -1.35341       -0.45199
H          3.02968       -1.07112       -3.61340
H          2.82016        1.92307       -0.85909
