12

Cl         1.07104        0.20752        0.05545
C          2.76030        0.06052        0.05553
C          3.67498        1.07882        0.05965
O          4.92497        0.56056        0.05824
N          4.85135       -0.81947        0.05311
C          3.54262       -1.12695        0.05142
C          3.03159       -2.46817        0.04617
C          3.77826       -3.58229        0.04261
H          3.61125        2.15596        0.06359
H          1.95108       -2.59082        0.04496
H          4.86416       -3.54199        0.04352
H          3.31465       -4.56313        0.03868
