15

O          0.78607       -0.15833        0.04488
N          2.17415        0.04396        0.05585
C          2.81309       -1.07297       -0.13878
C          4.32011       -1.03842       -0.15981
C          5.05832       -2.34884       -0.37794
C          4.18007       -3.52957       -0.56252
C          2.85378       -3.42689       -0.52806
O          2.15451       -2.24225       -0.32191
H          0.44070        0.74031        0.19595
H          4.64855       -0.59945        0.79117
H          4.61705       -0.32838       -0.94252
H          5.72426       -2.53479        0.47363
H          5.71062       -2.25400       -1.25467
H          4.64362       -4.49772       -0.72866
H          2.16505       -4.25218       -0.65530
