15

N          3.35314        0.24709        1.51346
S          2.73725       -0.03965       -0.03091
O          1.30465        0.05370        0.12672
O          3.45605        0.90184       -0.86451
C          3.23948       -1.66300       -0.43377
C          2.29807       -2.58569       -0.70006
C          4.71946       -1.86493       -0.48724
O          5.06925       -3.20491       -0.82375
H          2.70078        0.86937        1.99496
H          4.27171        0.68376        1.43597
H          1.23569       -2.35573       -0.66045
H          2.56162       -3.59674       -0.99451
H          5.18210       -1.63459        0.47763
H          5.16737       -1.21142       -1.24290
H          4.79492       -3.76728       -0.07924
