13

O          1.12830        0.17543        0.10534
C          2.49183        0.02699        0.13059
C          3.10834       -0.80993        0.96298
N          2.62194       -1.65973        1.91363
C          3.62699       -2.40895        2.44855
C          4.83996       -2.09432        1.96806
C          4.59414       -1.01720        0.97027
O          5.43521       -0.45346        0.29861
H          0.90849        0.78181       -0.62459
H          3.01931        0.63964       -0.59039
H          1.63109       -1.82265        2.02733
H          3.39522       -3.16971        3.18269
H          5.80336       -2.50953        2.19293
