13

N          1.13923       -0.13452        0.03040
S          2.80748       -0.11928        0.00024
O          3.29202        0.08174       -1.33769
O          3.29209        0.54281        1.18226
C          3.40985       -1.75373        0.31522
C          3.84447       -2.95741        0.56484
C          4.35113       -4.36063        0.85584
C          3.53020       -5.41090        0.76792
H          0.77325        0.68624       -0.45278
H          0.80289       -0.19414        0.99171
H          5.39585       -4.46173        1.13213
H          2.48744       -5.29939        0.48805
H          3.89161       -6.41303        0.97394
