11

N          1.11547        0.06021        0.03078
C          2.44517        0.07458        0.03909
C          3.28107        1.16003        0.04087
O          4.56251        0.68900        0.04929
C          4.40185       -0.67227        0.05219
N          3.14825       -1.08597        0.04682
C          5.58448       -1.46697        0.06032
N          6.55627       -2.10549        0.06708
H          0.53450        0.88955        0.04156
H          0.61645       -0.82310        0.04371
H          3.15685        2.23212        0.03673
