18

N          1.01230        0.06903       -0.08317
C          2.47258        0.07693        0.00163
C          3.04447        1.26550        0.78534
C          2.87404        0.97265        2.30433
C          3.85088       -0.15087        1.86162
O          4.49166        0.91716        1.01040
C          3.06895       -1.05152        0.89264
N          3.95546       -1.96749        0.16951
H          0.68744        0.90652       -0.56504
H          0.58606        0.07288        0.84153
H          2.88489        0.05637       -1.01367
H          2.90026        2.28842        0.43514
H          1.88675        0.66344        2.65345
H          3.29170        1.72473        2.98063
H          4.51806       -0.57088        2.61526
H          2.30028       -1.62646        1.42091
H          4.70163       -1.42078       -0.26660
H          3.43283       -2.38155       -0.60323
