17

C          0.93819        0.16542       -0.03501
O          2.34779        0.22052       -0.23843
C          2.75529       -0.48638       -1.41509
C          2.27781        0.20979       -2.68352
O          1.30065       -0.15504       -3.33443
C          4.26090       -0.62170       -1.42486
C          5.17384        0.57291       -1.26108
N          5.03572       -0.41227       -0.19216
H          0.72612        0.50351        0.98305
H          0.55609       -0.85374       -0.14851
H          0.43178        0.83903       -0.73234
H          2.33330       -1.49944       -1.39323
H          2.82091        1.13047       -2.95511
H          4.60097       -1.43170       -2.05924
H          4.75366        1.55117       -1.06695
H          6.12186        0.56657       -1.78434
H          4.40092       -0.06344        0.53729
