19

C          3.03832       -1.10832       -0.06404
O          2.49923        0.13416        0.36508
C          2.89646        1.20024       -0.48832
C          2.16047        2.46820       -0.07920
C          3.17971        3.55566       -0.33031
N          3.18164        3.95973       -1.74480
C          4.46063        2.82840        0.06674
O          4.30425        1.47358       -0.37923
H          2.72956       -1.87988        0.64634
H          4.13167       -1.07685       -0.08552
H          2.64949       -1.37233       -1.05266
H          2.67658        0.95180       -1.53346
H          1.90275        2.43652        0.98755
H          1.21827        2.59626       -0.62262
H          3.00234        4.44168        0.28627
H          3.52672        3.18891       -2.31938
H          3.86317        4.70877       -1.87642
H          4.58314        2.81508        1.15568
H          5.36435        3.25955       -0.37554
