19

C          1.09200       -0.04365        0.01933
C          2.61640       -0.02150        0.09203
C          3.07937       -0.80841        1.31855
N          3.22242       -0.66063       -1.11052
S          3.01867        0.15335       -2.58730
C          4.04533       -0.82733       -3.65749
O          1.64973       -0.05346       -2.99498
O          3.59681        1.47016       -2.45752
H          0.64814        0.29688        0.96080
H          0.71910       -1.05367       -0.18841
H          0.71889        0.61991       -0.76507
H          2.97472        1.01011        0.18581
H          2.83781       -1.87365        1.22234
H          2.60125       -0.43537        2.23111
H          4.16385       -0.72678        1.44745
H          2.93070       -1.63582       -1.19656
H          3.68821       -1.86009       -3.63316
H          5.08253       -0.76019       -3.32573
H          3.94436       -0.43043       -4.66872
