9

O          1.55000        0.43716        0.68409
N          2.42046        0.01036       -0.09039
O          2.77113       -1.17609       -0.18215
C          3.08406        0.95897       -0.95723
N          2.75632        2.25857       -0.92179
O          3.61237        2.80592       -1.89066
C          4.34553        1.77104       -2.38611
N          4.06752        0.60665       -1.85221
H          5.06696        2.01194       -3.15359
