17

C          1.03111       -0.04766        0.02013
C          2.55147       -0.04801        0.01353
C          3.11178        1.28908       -0.47597
C          4.61072        1.32346       -0.47744
N          5.27159        0.49210       -1.28579
S          6.89964        0.72615       -1.09429
C          6.76364        1.97534        0.06379
C          5.42621        2.20212        0.30877
H          0.65385       -1.01757        0.35922
H          0.63452        0.13874       -0.98302
H          0.64171        0.72261        0.69321
H          2.90287       -0.86410       -0.62974
H          2.91847       -0.26135        1.02477
H          2.73059        2.09703        0.16185
H          2.75076        1.49658       -1.49104
H          7.63079        2.46023        0.48778
H          5.05417        2.94566        1.00097
