17

C          0.87502       -0.15633        0.12318
C          2.40240       -0.09170        0.15310
C          2.93913       -1.28807       -0.57086
N          3.70164       -1.28356       -1.61318
N          4.10506       -0.08634       -2.18543
C          3.75562        1.03953       -1.65471
C          2.91421        1.22004       -0.42300
N          3.70898        1.98100        0.55901
H          0.51395       -1.09911        0.54922
H          0.49371       -0.09250       -0.90206
H          0.43985        0.66310        0.70500
H          2.70791       -0.20937        1.20118
H          2.65600       -2.27394       -0.16346
H          4.10043        1.96258       -2.15187
H          2.08234        1.87105       -0.71710
H          4.52496        1.43050        0.83405
H          3.16384        2.12348        1.40871
