19

O          1.81203        0.23964       -1.13753
C          2.32009       -0.47485       -0.01114
C          3.26182       -1.57003       -0.46758
C          3.82075       -2.45060        0.62215
C          2.90810       -3.03905       -0.41169
C          3.51753       -3.69677       -1.61290
C          3.77007       -2.53225       -2.57570
N          4.02627       -1.34537       -1.73101
H          1.34339        1.01091       -0.78114
H          1.47638       -0.87739        0.55895
H          2.86980        0.23125        0.61989
H          3.42926       -2.35472        1.62820
H          4.87837       -2.68156        0.59053
H          1.89397       -3.32780       -0.18442
H          2.86011       -4.45174       -2.05267
H          4.46424       -4.18026       -1.34160
H          2.86778       -2.35986       -3.17565
H          4.60203       -2.73117       -3.25711
H          3.61562       -0.53165       -2.20140
