13

Cl         0.92665        0.00415        0.04122
C          2.62296        0.00075        0.05097
C          3.45227        1.09959        0.05669
N          4.75716        0.66392        0.06399
C          4.73809       -0.71336        0.06241
C          3.43275       -1.15078        0.05456
N          5.92790        1.35146        0.07158
C          5.87794        2.63748        0.07380
H          3.19451        2.14609        0.05597
H          5.67164       -1.25864        0.06723
H          3.10900       -2.18303        0.05175
H          6.82642        3.19940        0.07995
H          4.96616        3.25494        0.07024
