17

N          0.93280        0.11092       -0.08046
C          2.39138        0.10892       -0.03555
C          3.16710       -0.65167       -1.07398
C          3.16039        0.85555       -1.09374
C          4.39844        1.61614       -0.73133
O          4.09693        3.01789       -0.76014
C          4.25891        3.69370        0.40077
O          4.65894        3.25154        1.46458
H          0.54949       -0.55977        0.58551
H          0.58210       -0.17158       -0.99461
H          2.80435        0.12682        0.97181
H          2.63129       -1.16314       -1.86553
H          4.06916       -1.16313       -0.75746
H          2.61270        1.33463       -1.89736
H          5.16577        1.43859       -1.49170
H          4.81018        1.28440        0.22865
H          3.97755        4.74645        0.23834
