12

O          1.10201       -0.25821        0.31188
S          2.44932       -0.05149       -0.16561
O          2.80647        0.03183       -1.56244
C          3.32823        1.08683        0.82211
C          4.31916       -0.03806        1.08364
O          3.45463       -1.08701        0.59618
C          5.54634       -0.01102        0.31221
C          6.54038       -0.00337       -0.36069
H          2.76767        1.41455        1.70245
H          3.69980        1.96030        0.28017
H          4.51569       -0.17732        2.15391
H          7.40711       -0.01323       -0.98230
