14

N          1.44611        0.40680        0.59625
C          2.60559        0.04793        0.17107
C          2.94865       -1.40801       -0.08874
C          4.22951       -1.31556       -0.86261
O          4.83577       -2.21231       -1.43112
C          4.70982        0.08648       -0.80842
C          3.96965        1.18927       -1.50027
N          3.67146        0.89261       -0.10938
H          0.82594       -0.39478        0.71966
H          2.17192       -1.90011       -0.67208
H          3.12680       -1.91401        0.86419
H          5.71061        0.26893       -0.43036
H          3.16435        0.97434       -2.19167
H          4.46660        2.14562       -1.62921
