13

N          1.29228       -0.13905        0.41258
C          2.51455       -0.03993        0.06669
N          3.27010        1.08141       -0.02994
C          4.43801        0.79723       -0.84384
C          4.54285       -0.71213       -0.66533
O          3.21469       -1.13956       -0.31569
C          4.23421        1.15805       -2.26012
N          4.07444        1.46937       -3.36810
H          0.92810        0.78119        0.66158
H          2.77451        1.94587       -0.20591
H          5.32766        1.30494       -0.45828
H          5.20048       -0.97320        0.17188
H          4.88011       -1.24658       -1.55917
