14

O          0.98641        0.03858        0.09986
C          2.41187       -0.01592        0.08582
C          2.96807        0.81326        1.23624
C          4.45400        0.76558        1.30496
N          5.19913        1.23892        0.30019
S          6.79516        1.02927        0.74758
C          6.38119        0.32471        2.25324
N          5.08038        0.23319        2.42867
H          0.67720       -0.47495       -0.66697
H          2.75844        0.36489       -0.88032
H          2.71655       -1.06403        0.17465
H          2.53816        0.45554        2.17991
H          2.63412        1.85399        1.13806
H          7.11005       -0.00891        2.97815
