18

O          1.72474        0.60336        0.94344
C          2.53725       -0.00346       -0.04654
C          3.07010        1.08404       -0.91487
C          4.37143        1.27971       -1.18615
C          4.88080        2.38846       -2.05880
N          5.28827        1.84261       -3.35636
N          5.63839        2.75858       -4.29341
C          5.71177        2.28020       -5.49158
H          1.42370       -0.10815        1.53221
H          1.92079       -0.68798       -0.63679
H          3.33440       -0.56988        0.44431
H          2.32456        1.74752       -1.34814
H          5.12502        0.62465       -0.75596
H          5.73351        2.87105       -1.56701
H          4.10765        3.15341       -2.20143
H          4.55025        1.21353       -3.67900
H          5.97302        2.94762       -6.32853
H          5.51991        1.22337       -5.74425
