14

N          2.36581        0.13595       -1.37869
C          2.50313       -0.08851        0.06662
C          2.84528        1.16951        0.76051
C          2.62364        2.49737        0.51055
O          1.98031        2.98920       -0.56105
C          3.21275        3.17999        1.57944
N          3.76984        2.33069        2.45084
O          3.53393        1.06113        1.93482
H          2.14984       -0.76173       -1.81619
H          3.28749        0.38897       -1.74465
H          3.27200       -0.84811        0.24335
H          1.55569       -0.47285        0.45804
H          1.73104        2.24136       -1.14659
H          3.26748        4.24214        1.76468
