12

N          0.97712        0.01988        0.12262
C          2.25362        0.05216       -0.00136
N          2.92080        1.23639       -0.09770
C          4.27179        1.36178       -0.23404
O          4.83139        2.44776       -0.31738
C          5.02858        0.10717       -0.27689
C          4.34454       -1.03139       -0.17804
O          2.95923       -1.11485       -0.03801
H          0.58989        0.96318        0.13355
H          2.41060        2.10312       -0.06999
H          6.10283        0.15559       -0.38582
H          4.78263       -2.02013       -0.19548
