13

O          1.64824       -0.56255       -1.05994
C          2.36084       -0.09757        0.08140
C          2.73794       -1.24015        0.98267
C          2.47333       -2.53599        0.74130
C          3.03064       -3.19856        1.90736
O          3.05660       -4.37241        2.18900
C          3.59305       -2.08899        2.73553
N          3.40675       -0.94708        2.16563
H          1.40506        0.22778       -1.57138
H          1.72202        0.60885        0.62126
H          3.26040        0.42353       -0.26163
H          1.97549       -2.99931       -0.08786
H          4.08248       -2.31793        3.69106
