15

O          1.23994        0.39122       -0.09339
S          2.54449       -0.02637        0.37281
O          2.79526       -0.22172        1.78151
N          3.62242        1.18514       -0.13346
C          3.70984        1.30889       -1.60084
C          4.21484        0.00928       -2.24541
C          3.74241       -1.29287       -1.64217
C          3.03138       -1.42814       -0.51138
H          3.37284        2.05546        0.33863
H          4.40772        2.12125       -1.83394
H          2.73811        1.60665       -2.01005
H          5.31165        0.00355       -2.20606
H          3.94408        0.02312       -3.30827
H          4.04607       -2.19424       -2.17006
H          2.74344       -2.38829       -0.11080
