17

C          1.24437       -0.05501       -0.54192
O          2.63165       -0.11257       -0.24881
C          2.93878       -0.21495        1.14749
C          2.43921       -1.53777        1.74649
C          2.79595       -1.62356        3.22154
N          3.09189       -1.69472        4.44522
C          4.44212       -0.09706        1.21776
C          5.10924        0.81010        1.94422
H          1.11915        0.45021       -1.50327
H          0.68636        0.49529        0.22012
H          0.85133       -1.07207       -0.63799
H          2.47993        0.63511        1.67176
H          2.86898       -2.39378        1.21239
H          1.35152       -1.62291        1.64751
H          5.01110       -0.80251        0.61625
H          4.59832        1.54724        2.56029
H          6.19387        0.83294        1.94138
