15

O          0.95538       -0.03180        0.00230
C          2.28678        0.02020        0.01061
C          3.13012        1.11228        0.01965
C          4.45453        0.62952        0.02818
C          4.38374       -0.74434        0.02436
N          3.05687       -1.14187        0.01288
C          2.56109       -2.45184        0.00435
C          3.27460       -3.58682        0.00541
H          0.63221        0.88632        0.00281
H          2.82558        2.14985        0.01963
H          5.36518        1.21428        0.03643
H          5.17666       -1.47844        0.02888
H          1.47575       -2.51359       -0.00397
H          4.35853       -3.60096        0.01313
H          2.77181       -4.54909       -0.00204
