22

C          0.51036        0.41324        0.06067
C          1.75863       -0.36456       -0.28976
C          2.94760       -0.29527        0.69143
N          3.85279       -0.45466       -0.47474
C          2.79486        0.16249       -1.33529
C          3.02514        1.67023       -1.53085
C          4.31001        1.90986       -2.32633
N          4.54545        3.33810       -2.53664
H          0.05274        0.00881        0.97044
H         -0.22909        0.33214       -0.74423
H          0.71681        1.47264        0.23069
H          1.47800       -1.40915       -0.49773
H          3.07216        0.66165        1.21364
H          3.00460       -1.09810        1.42987
H          4.02535       -1.43512       -0.70390
H          2.68706       -0.32888       -2.31153
H          2.16954        2.09490       -2.07062
H          3.08292        2.19362       -0.56830
H          4.25708        1.40586       -3.29951
H          5.17316        1.49743       -1.79533
H          3.80627        3.72441       -3.12036
H          5.41428        3.46277       -3.05538
