19

N          1.08798        0.20996       -0.07715
C          2.52777       -0.05585       -0.07221
C          2.91767       -0.91995       -1.26605
O          4.35593       -1.20416       -1.30865
C          4.04560       -2.56241       -1.73902
C          2.64075       -2.43620       -1.13484
C          1.47156       -2.97256       -1.92115
O          0.27632       -2.72455       -1.18601
H          0.81183        0.62066        0.81269
H          0.56767       -0.66693       -0.17151
H          2.80800       -0.54315        0.86815
H          3.05740        0.90153       -0.11741
H          2.61267       -0.46932       -2.22141
H          4.69474       -3.30185       -1.26335
H          4.10613       -2.65521       -2.82874
H          2.62800       -2.79389       -0.09588
H          1.55823       -4.05182       -2.08129
H          1.37816       -2.49122       -2.89960
H          0.22697       -3.38976       -0.47735
