11

Cl         1.07483       -0.01338       -0.01317
C          2.77916        0.10053       -0.00583
C          3.48888        1.27882       -0.00617
S          5.17820        1.00413        0.00251
C          4.96316       -0.69222        0.00716
C          3.62922       -1.04098        0.00204
C          6.04982       -1.61565        0.01552
C          6.96932       -2.38744        0.02286
H          3.10159        2.28809       -0.01116
H          3.27920       -2.06610        0.00365
H          7.79138       -3.06467        0.02938
