22

C          0.90802       -0.09821       -0.01984
C          2.43751       -0.04550       -0.09478
C          2.86724        0.02304       -1.57228
C          3.20845        1.05145        0.72800
N          2.43779        1.51250        1.88591
C          4.19215       -0.04933        1.19248
C          3.11769       -1.10241        0.84404
N          3.71925       -2.19975        0.09436
H          0.46357        0.78719       -0.48742
H          0.54179       -0.15271        1.01009
H          0.52770       -0.98273       -0.54270
H          2.44973        0.91557       -2.05356
H          2.51122       -0.85189       -2.12715
H          3.95563        0.07294       -1.68460
H          3.66046        1.86783        0.15729
H          2.09299        0.78427        2.50946
H          1.63481        2.09253        1.64665
H          4.50638       -0.02613        2.24150
H          5.10178       -0.08120        0.57793
H          2.51773       -1.42401        1.70222
H          4.39046       -1.93002       -0.62265
H          3.04079       -2.80816       -0.36134
