18

C          0.86320       -0.14058       -0.07136
C          2.39395       -0.09814        0.01599
C          3.00305       -1.39550       -0.58049
N          3.67325       -1.30142       -1.88867
C          3.97441       -0.12594       -2.29626
N          3.70549        1.06428       -1.69804
C          2.94553        1.19529       -0.56498
C          2.69029        2.38574       -0.00050
H          0.47591       -1.05622        0.38972
H          0.51736       -0.10739       -1.10981
H          0.40984        0.69943        0.46638
H          2.64185       -0.11016        1.08665
H          2.22492       -2.16438       -0.67376
H          3.73148       -1.80219        0.13145
H          4.52213       -0.00492       -3.24524
H          4.03887        1.91728       -2.13479
H          3.06759        3.31505       -0.42031
H          2.08127        2.46944        0.89482
