16

C          0.96037       -0.01419        0.08000
N          2.40005        0.04575        0.09248
S          3.22747        1.49189        0.06679
C          4.75127        0.65132        0.06079
C          4.67462       -0.68863        0.06878
C          5.78261       -1.66955        0.06517
C          3.22739       -1.05352        0.08305
N          2.79945       -2.27444        0.08554
H          0.49953        0.98007        0.08591
H          0.59405       -0.55262        0.96065
H          0.60708       -0.53765       -0.81491
H          5.68166        1.20407        0.05049
H          6.75785       -1.17192        0.05857
H          5.72806       -2.30876       -0.82157
H          5.73795       -2.30434        0.95569
H          3.57803       -2.93606        0.07702
