15

C          0.97192        0.14601        0.04726
C          2.45216        0.04858        0.04965
N          3.21057        1.15211        0.05561
N          4.48459        0.68273        0.05657
C          5.55462        1.58350        0.06246
N          5.36832        2.86800        0.06659
C          4.53829       -0.68700        0.05152
C          3.23688       -1.12725        0.04683
H          0.63513        1.18782        0.04514
H          0.55774       -0.34258        0.93495
H          0.56043       -0.34517       -0.84021
H          6.57527        1.16959        0.06361
H          4.34276        3.02642        0.06452
H          5.48116       -1.21473        0.05126
H          2.89514       -2.15323        0.04208
