18

C          0.88705       -0.05644        0.00644
C          2.38099       -0.02667        0.01353
C          3.12997        1.13310        0.01980
S          4.80605        0.83740        0.02864
C          4.57202       -0.85564        0.02433
C          5.76183       -1.75960        0.03081
C          3.22753       -1.19960        0.01488
C          2.69947       -2.60072        0.00747
H          0.46659        0.95454        0.00444
H          0.51221       -0.57614        0.89404
H          0.52029       -0.57635       -0.88436
H          2.76780        2.15210        0.01992
H          6.70810       -1.20877        0.03783
H          5.75497       -2.39906       -0.85809
H          5.74325       -2.40127        0.91799
H          3.50176       -3.34434        0.01148
H          2.09051       -2.77059       -0.88644
H          2.07715       -2.77526        0.89118
