17

N          1.10529       -0.01508        0.04711
C          2.56301       -0.20119        0.06444
C          3.29662        0.80183       -0.90737
C          2.80263       -0.12425       -2.07596
C          3.00326       -1.26296       -1.01139
C          4.46480       -1.56443       -0.86027
C          5.25043       -0.48161       -0.73676
O          4.75383        0.81737       -0.74555
H          0.79257        0.75604        0.63687
H          0.59023       -0.83421        0.36867
H          2.98174       -0.31018        1.06920
H          2.90774        1.82457       -0.92685
H          3.44178       -0.16455       -2.96429
H          1.77329        0.04159       -2.41345
H          2.38441       -2.15660       -1.12344
H          4.84019       -2.57906       -0.85695
H          6.32541       -0.49630       -0.62257
