17

C          3.27923       -1.01031       -0.52849
O          2.46711        0.07231       -0.08638
C          2.98576        0.76481        1.07722
C          4.24252        1.57841        0.87752
C          2.91598        2.27690        0.97021
C          2.63988        3.17231        2.12992
C          2.73190        0.10964        2.33774
N          2.54915       -0.41764        3.35593
H          2.80709       -1.45567       -1.40823
H          3.36619       -1.77437        0.24891
H          4.27193       -0.65323       -0.81712
H          4.72507        1.56243       -0.09244
H          4.93628        1.66069        1.70687
H          2.49214        2.68109        0.05639
H          3.09528        2.81448        3.05854
H          1.56138        3.26681        2.28757
H          3.04082        4.17080        1.92660
