17

O          3.92380        2.19796       -0.14038
C          3.64724        1.08028        0.27935
C          4.66881        0.21649        0.89534
C          4.35489       -1.01693        1.30768
N          5.20329       -1.93910        1.85999
C          6.33525       -1.70863        2.70812
C          6.31924       -3.21233        2.99831
C          4.87493       -3.18375        2.48355
H          2.62706        0.66712        0.21649
H          5.67037        0.62043        0.96434
H          3.34747       -1.40917        1.18797
H          6.09092       -1.07588        3.56879
H          7.21277       -1.32688        2.18311
H          6.45413       -3.50465        4.04194
H          7.00461       -3.79043        2.36684
H          4.11118       -3.07823        3.26178
H          4.60314       -3.96970        1.77592
