19

N          0.80618       -0.27694       -0.31917
C          2.21221        0.00669       -0.02279
C          3.07714       -1.23579        0.24974
C          2.64186       -2.17864        1.40429
O          2.77043       -3.34741        0.55263
C          2.78409       -2.49294       -0.62396
C          4.55217       -0.88991        0.28613
C          5.05492       -0.04032        1.19048
H          0.33355        0.59415       -0.56048
H          0.33317       -0.62686        0.51342
H          2.24626        0.68714        0.83621
H          2.62008        0.55281       -0.88194
H          1.61325       -2.07293        1.76459
H          3.30978       -2.23829        2.26924
H          1.81906       -2.53844       -1.13886
H          3.56417       -2.79447       -1.33048
H          5.20875       -1.35828       -0.44201
H          4.44259        0.44638        1.94297
H          6.11773        0.18763        1.19598
