15

O          2.58406       -1.09903       -0.27499
C          2.14680       -0.07407        0.22816
N          2.86917        0.82249        0.97169
C          4.30748        0.67395        1.16151
C          4.81751        2.06341        0.94237
O          4.63756        2.99854        2.01297
C          3.64902        2.99410        0.97725
C          2.41844        2.18113        1.22359
H          1.09037        0.21977        0.11944
H          4.73718       -0.04862        0.46250
H          4.49081        0.34526        2.19007
H          5.60066        2.18820        0.21334
H          3.57071        3.80366        0.27164
H          1.59123        2.44789        0.55974
H          2.09560        2.25251        2.26609
