19

N          0.95694        0.30154        0.06524
C          2.39106        0.06700        0.01742
C          2.90261       -0.41004       -1.35618
C          3.76216       -1.62261       -0.96677
C          4.29297       -1.27110        0.41293
C          2.89033       -1.04511        0.96117
C          2.25284       -2.38471        0.58822
O          2.85031       -2.71055       -0.69106
H          0.69653        1.00610       -0.62381
H          0.69250        0.67348        0.97645
H          2.89547        1.00852        0.27205
H          3.50273        0.37476       -1.82796
H          2.08994       -0.69402       -2.03384
H          4.50167       -1.91618       -1.71392
H          4.93027       -0.38136        0.42697
H          4.80130       -2.10809        0.90313
H          2.82260       -0.79216        2.02107
H          1.16431       -2.35772        0.49041
H          2.52763       -3.17505        1.29453
