16

N          1.19710        0.18619        1.84604
N          2.60278        0.23585        1.75534
C          3.20149        1.00308        0.75677
O          2.56872        1.60121       -0.11079
C          4.71163        1.00463        0.82119
C          5.23582        2.00043        1.84770
C          6.75381        1.94528        1.90298
C          8.05595        1.89797        1.95040
H          0.90011       -0.79166        1.87682
H          0.82398        0.54893        0.95626
H          3.15711       -0.12523        2.52950
H          5.09341        1.23855       -0.17963
H          5.05790       -0.01138        1.05356
H          4.83608        1.78084        2.84419
H          4.92111        3.01770        1.58825
H          9.12067        1.86405        1.98797
