10

O         -0.87949        1.33573        0.00475
C         -1.94065        0.46678        0.00500
N         -1.65497       -0.82135        0.00316
C         -0.29885       -0.78067        0.00161
C          0.17760        0.48277        0.00252
N          1.50006        0.73394        0.00127
C          2.07910       -0.45640       -0.00078
S          1.03749       -1.86644       -0.00121
H         -2.92179        0.92425        0.00670
H          3.15548       -0.57817       -0.00216
