11

N          5.91201        1.40641        1.03723
C          4.93690        0.73779        0.59889
C          3.76148       -0.06818        0.07051
C          4.22404       -0.97675       -0.99936
C          4.82720       -0.70964       -2.19903
O          5.04643       -1.89519       -2.81699
N          4.56439       -2.90925       -1.98847
N          4.06860       -2.33306       -0.89822
H          2.99879        0.61575       -0.31701
H          3.31675       -0.63388        0.89627
H          5.15379        0.17443       -2.72472
