13

O          1.01368       -0.29890       -0.37040
S          2.28793        0.11574        0.19185
O          2.49678        0.27194        1.62094
C          3.72433       -0.58168       -0.70376
N          4.42628        0.71467       -0.33228
C          3.14716        1.36655       -0.83239
C          3.09356        0.89430       -2.24125
C          3.47353       -0.38854       -2.15654
H          4.14135       -1.51531       -0.32826
H          5.25050        0.92183       -0.89327
H          2.97711        2.41430       -0.58769
H          2.78412        1.45162       -3.11041
H          3.54717       -1.12485       -2.94026
