18

C          1.64148        1.10247        0.51189
C          2.49989       -0.06017        0.04093
C          3.10159        0.20241       -1.31020
C          4.42444        0.24211       -1.51669
N          4.96113        0.46604       -2.75784
C          6.26602        0.52908       -3.12961
N          7.22642        0.36076       -2.19848
S          6.68467        0.81012       -4.71389
H          1.24039        0.89295        1.50887
H          0.79636        1.27035       -0.16381
H          2.22346        2.02850        0.56938
H          1.88903       -0.96794       -0.01499
H          3.28275       -0.24870        0.78546
H          2.40762        0.34736       -2.13454
H          5.10801        0.08937       -0.69074
H          4.31390        0.60532       -3.52914
H          7.04038        0.18082       -1.22565
H          8.19559        0.40691       -2.48720
