15

C          3.20699       -1.17901       -0.56761
N          2.59316        0.10792       -0.29850
C          3.12065        0.97884        0.60929
C          2.84601        2.33712        0.61540
O          2.06702        3.04032       -0.20533
S          3.67032        3.14491        1.87755
C          4.38181        1.69720        2.43218
C          4.00292        0.61410        1.67025
H          2.60502       -1.72341       -1.30271
H          3.26444       -1.79957        0.33218
H          4.21135       -1.04941       -0.98518
H          2.05840        0.44687       -1.09097
H          1.66937        2.39648       -0.81013
H          5.03991        1.70653        3.28965
H          4.34876       -0.38815        1.88127
