18

N          1.13788       -0.01750       -0.19053
C          2.47757        0.09250       -0.00711
S          3.07593        1.28925        0.97623
N          3.18662       -0.84490       -0.70558
C          4.64031       -0.88658       -0.80117
C          5.11721       -2.05291       -1.65523
C          6.63709       -2.09117       -1.73153
O          7.04878       -3.16981       -2.56047
H          0.54537        0.58470        0.36977
H          0.72385       -0.87999       -0.51620
H          2.66878       -1.33227       -1.42471
H          5.04545       -0.96555        0.21415
H          4.97716        0.06337       -1.23066
H          4.69899       -1.97923       -2.66670
H          4.74159       -3.00202       -1.25180
H          7.08594       -2.21686       -0.74264
H          7.02672       -1.16604       -2.17027
H          6.80362       -3.99610       -2.10952
