15

O          1.34510        0.35222       -0.52285
C          2.43175        0.18165        0.02187
C          3.05019       -1.19449        0.22692
N          3.98606       -1.22429        1.36123
C          5.09979       -0.29347        1.18553
C          4.63704        1.10931        0.96170
O          3.52803        1.55555        1.75409
C          3.28692        1.34594        0.34811
H          3.54899       -1.49870       -0.69929
H          2.23661       -1.89806        0.43260
H          4.34654       -2.16979        1.47943
H          5.72328       -0.61105        0.34119
H          5.72946       -0.32201        2.08110
H          5.44005        1.80842        0.77896
H          3.14950        2.22399       -0.26920
