18

N          1.16033        0.14838       -0.14978
C          2.60155       -0.10831       -0.03306
C          2.99062       -1.47807       -0.62499
O          4.40994       -1.63549       -0.66860
C          5.01067       -0.77801       -1.64963
C          4.59520        0.65777       -1.51280
N          4.69366        1.35264       -0.23391
C          3.35136        0.99937       -0.73122
H          0.65990       -0.53009        0.42354
H          0.85833       -0.01669       -1.10863
H          2.86993       -0.08748        1.03009
H          2.58310       -1.61770       -1.63460
H          2.58545       -2.27951        0.00267
H          4.73896       -1.15013       -2.64429
H          6.09719       -0.86634       -1.55138
H          4.84701        1.24168       -2.38921
H          4.86256        2.35162       -0.36013
H          2.73969        1.83802       -1.03874
