12

N          1.08045       -0.10869       -0.36437
C          2.29431       -0.06479        0.02479
N          3.00240       -1.21196        0.37178
S          4.60782       -0.85093        0.68415
O          4.87614       -1.16685        2.06636
O          5.38592       -1.39894       -0.40157
C          4.40465        0.84939        0.48650
C          3.14056        1.14007        0.14620
H          0.74979       -1.07602       -0.32872
H          2.80631       -2.12645       -0.01706
H          5.21692        1.54058        0.62898
H          2.73825        2.12082       -0.04879
