16

N          1.24781        0.28506        0.38933
N          2.53841       -0.19658        0.20260
C          3.01991       -0.71850       -1.12154
C          4.37558       -1.47307       -0.78551
C          4.72944        0.00594       -0.31781
C          4.01851        0.37433       -1.69453
C          3.64785        0.40407        0.81469
O          3.71478        1.07676        1.82450
H          0.61468       -0.50584        0.50050
H          0.95293        0.80562       -0.43541
H          2.28705       -1.19246       -1.77202
H          4.32417       -2.22729        0.00498
H          4.94128       -1.87515       -1.63323
H          5.76956        0.28276       -0.16934
H          4.56038        0.12480       -2.61273
H          3.62095        1.39027       -1.77305
