16

C          0.91693        0.00744       -0.12388
C          2.44244       -0.03250       -0.07588
C          2.96404       -1.35971        0.48729
S          3.29432       -1.04661        2.22073
O          2.10271       -1.34639        2.98650
O          4.58563       -1.60547        2.56197
C          3.43585        0.66767        2.01860
C          2.97553        1.05689        0.82172
H          0.53167       -0.78305       -0.77667
H          0.56307        0.96746       -0.51556
H          0.47372       -0.13219        0.86851
H          2.82792        0.10094       -1.09334
H          3.92073       -1.62268        0.02282
H          2.26795       -2.19577        0.38912
H          3.84179        1.29420        2.79568
H          2.96126        2.09622        0.51357
