16

N          1.01819        0.29884        0.02128
N          2.36148        0.11800       -0.02027
C          3.03431        0.56407        1.00568
C          4.52914        0.37777        1.01942
C          5.31131        1.06186        2.12844
C          4.47115        1.62217        3.21479
C          3.14261        1.62528        3.13996
O          2.40650        1.12826        2.06907
H          0.54428       -0.39208       -0.56183
H          0.63952        0.23481        0.96793
H          4.91795        0.71603        0.05081
H          4.71365       -0.70329        1.06421
H          5.92015        1.86950        1.70417
H          6.01924        0.34379        2.56005
H          4.96615        2.05005        4.08262
H          2.48212        2.03311        3.89517
