15

C          1.23880       -0.04022       -0.02473
O          2.66140       -0.05157        0.01873
N          3.14942        0.55511       -1.14939
C          4.44569        0.55344       -1.10204
C          5.28327        1.16335       -2.21213
O          4.60422        1.10435       -3.45628
C          5.61689        2.56200       -1.90607
C          5.88841        3.71083       -1.68211
H          0.86183       -0.51911        0.88297
H          0.88166       -0.60043       -0.89486
H          0.87051        0.98949       -0.06058
H          4.99516        0.14392       -0.23552
H          6.19749        0.56824       -2.30105
H          3.70555        1.43762       -3.27188
H          6.12200        4.73449       -1.50195
