15

O          1.09292       -0.47279        0.19159
C          2.20769        0.00764        0.01626
C          3.02506       -0.32032       -1.17792
N          2.83412       -1.67936       -1.70937
C          2.38080       -0.54241       -2.52638
C          3.12656       -0.23786       -3.79059
C          2.49346        0.97659       -4.31949
C          1.96733        1.95071       -4.78807
H          2.66264        0.70342        0.74004
H          4.05333        0.02016       -1.14820
H          2.02324       -2.11220       -1.24872
H          1.30214       -0.46752       -2.62676
H          3.02519       -1.06387       -4.50002
H          4.19416       -0.07050       -3.60774
H          1.49208        2.80024       -5.22082
