16

N          2.99349       -2.33915        0.01947
C          2.39257       -1.35120       -0.54327
N          2.96695       -0.37093       -1.29370
C          4.39682       -0.26266       -1.22534
C          5.09882       -1.09921       -2.34122
C          6.07923        0.07097       -2.61503
C          5.02586        0.97619       -1.93144
O          4.75268        2.15673       -1.96601
H          2.30973       -2.91806        0.52154
H          1.30026       -1.22949       -0.45179
H          2.47621        0.51849       -1.34523
H          4.80049       -0.38825       -0.21362
H          4.46381       -1.33487       -3.20480
H          5.56929       -2.02656       -2.00000
H          6.26629        0.29246       -3.66666
H          7.02134        0.01870       -2.06194
