21

N          0.89867        0.08829       -0.03320
C          2.35580        0.10794       -0.05248
C          2.89468        0.73715        1.22974
C          4.42458        0.74473        1.24101
C          4.96823        1.37127        2.49494
O          4.58869        0.72018        3.71495
C          6.34193        1.98350        2.49686
C          5.12546        2.86370        2.58783
H          0.55009       -0.26416       -0.92418
H          0.54141        1.03890        0.05899
H          2.70076        0.67289       -0.92577
H          2.72379       -0.91852       -0.15191
H          2.52151        0.18207        2.09972
H          2.52262        1.76462        1.32965
H          4.79373        1.28007        0.35700
H          4.80168       -0.28272        1.16720
H          4.67928       -0.24542        3.64970
H          6.90856        1.99946        1.57394
H          6.94906        1.87226        3.38801
H          4.86745        3.46726        1.72657
H          4.90637        3.33391        3.53977
