12

N          1.97096        0.38324        0.00025
C          1.45994       -0.92275       -0.00187
C          0.11586       -0.75525       -0.00065
O         -0.96567       -1.46110       -0.00125
C         -1.93594       -0.46176        0.00128
N         -1.48900        0.79517        0.00335
C         -0.15907        0.56179        0.00201
C          0.95314        1.37480        0.00279
H          2.97106        0.54851       -0.00011
H          2.06075       -1.81815       -0.00395
H         -2.96200       -0.80282        0.00134
H          1.15124        2.43577        0.00466
