18

C          0.80864        0.16575        0.04103
C          2.29576        0.08322        0.04741
C          3.21300        1.11146        0.05226
C          4.57136        0.65151        0.05817
C          5.75662        1.55977        0.06450
C          4.62439       -0.73349        0.05752
C          5.81779       -1.63099        0.06278
S          3.06434       -1.43949        0.04946
H          0.47450        1.20860        0.04106
H          0.38859       -0.31994        0.92801
H          0.39624       -0.31750       -0.85085
H          2.92618        2.15671        0.05182
H          5.45230        2.61145        0.06103
H          6.37669        1.38530       -0.82073
H          6.36512        1.38772        0.95820
H          6.75092       -1.05937        0.06959
H          5.82590       -2.26828       -0.82782
H          5.81532       -2.27198        0.95076
