16

C          3.47273       -0.62622        0.74137
O          2.70381        0.33876        0.01569
C          3.39600        1.15522       -0.83010
C          2.45207        2.05559       -1.59397
C          2.24701        3.39103       -0.89758
C          2.07110        4.53657       -0.30022
N          4.69455        1.11269       -0.91689
N          5.28247        1.96691       -1.78387
H          2.81824       -1.08245        1.48927
H          4.31253       -0.15785        1.26405
H          3.82172       -1.40952        0.06188
H          1.48163        1.55545       -1.69444
H          2.82496        2.22032       -2.60987
H          1.92331        5.47094        0.19095
H          6.29763        1.91743       -1.67844
H          5.03048        2.94224       -1.59891
