16

C          1.15887        0.08983       -0.00194
O          2.56164       -0.12482       -0.10013
C          2.99688       -1.30824       -0.64950
C          2.20875       -2.29125       -1.10630
N          4.36575       -1.34653       -0.66638
C          5.21364       -2.31975       -1.11834
N          6.52403       -1.98512       -0.95773
O          4.92571       -3.39713       -1.62107
H          1.00059        1.07165        0.45411
H          0.69121       -0.65982        0.64471
H          0.69329        0.10112       -0.99285
H          1.12840       -2.24037       -1.08273
H          2.61206       -3.20443       -1.53006
H          4.79172       -0.51891       -0.28064
H          6.83832       -1.11311       -0.56657
H          7.20819       -2.65763       -1.27669
