17

C          0.84953       -0.00690       -0.04049
C          2.37887       -0.01635        0.02106
C          2.94471       -1.29523       -0.58713
C          3.69504       -1.12670       -1.87542
N          4.01768       -0.00434       -2.43451
N          3.63357        1.12699       -1.79695
C          2.91667        1.23994       -0.63823
N          2.66371        2.37900       -0.07577
H          0.43289       -0.90019        0.43838
H          0.49147        0.02901       -1.07512
H          0.44056        0.86534        0.48118
H          2.66503        0.02061        1.08036
H          2.15899       -2.03849       -0.76719
H          3.64116       -1.76185        0.11890
H          4.02381       -2.05609       -2.37091
H          3.95263        1.99045       -2.22488
H          3.07039        3.14050       -0.62296
