19

C          0.73575       -0.39415        0.08450
O          1.99329        0.02149       -0.43526
C          3.05836       -0.26133        0.37910
C          4.29794        0.03593       -0.03221
C          5.61664       -0.17599        0.65088
C          5.65106       -0.76231        2.03272
C          5.21859       -2.17329        2.34578
N          6.63231       -1.81798        2.32971
H         -0.03709       -0.09728       -0.63285
H          0.52462        0.09752        1.03838
H          0.70009       -1.48295        0.19312
H          2.82199       -0.71927        1.32865
H          4.38394        0.49868       -1.01404
H          6.22993       -0.78328       -0.02751
H          6.11417        0.80155        0.70242
H          5.53539       -0.01138        2.80591
H          4.85981       -2.80705        1.54563
H          4.80282       -2.37328        3.32655
H          7.07489       -2.16993        1.47720
