18

C          2.82227        2.64379        0.84327
O          2.43315        1.56266        1.68279
C          3.01810        0.33173        1.27993
C          4.54766        0.25416        1.36150
O          5.22383        0.02341        0.35224
N          5.14354        0.45643        2.60713
C          4.46177        0.75669        3.85980
N          6.56837        0.51110        2.64469
H          2.30848        3.54495        1.18859
H          2.53294        2.45051       -0.19406
H          3.90022        2.81939        0.90969
H          2.70920        0.10265        0.25221
H          2.60649       -0.46561        1.90906
H          3.37993        0.64742        3.78380
H          4.70052        1.78314        4.15349
H          4.82253        0.06371        4.62627
H          6.87916        0.65177        1.67326
H          6.89994       -0.42906        2.86914
