13

N          1.11021        0.00609        0.04516
C          2.48204       -0.01505       -0.01516
C          3.15637        1.33312       -0.11283
N          2.47583        2.43678       -0.19509
O          3.37110        3.51078       -0.27786
C          3.22721       -1.13016        0.02812
C          4.74721       -1.13016        0.02812
N          6.00818       -1.13016        0.02812
H          0.67161        0.90806       -0.13864
H          0.56997       -0.83924       -0.04729
H          4.25669        1.35272       -0.12853
H          2.77935        4.27958       -0.30495
H          2.76949       -2.10915        0.09997
