19

N          1.32591       -0.25641        0.09151
C          2.65151        0.36678       -0.02113
C          2.87950        1.30906        1.17603
C          3.47355        0.12183        1.95660
C          3.72685       -0.58893        0.59095
C          5.14516       -0.57348        0.05496
C          5.54771       -1.13461       -1.27855
O          5.37482        0.27469       -1.07454
H          0.60163        0.25674       -0.41281
H          0.97398       -0.35411        1.04350
H          2.85781        0.78279       -1.00982
H          2.00205        1.78428        1.62442
H          3.61972        2.09346        0.96955
H          4.35895        0.35141        2.55616
H          2.75234       -0.40052        2.59549
H          3.41801       -1.64473        0.62289
H          5.87328       -0.57591        0.85677
H          4.80177       -1.65706       -1.86353
H          6.55988       -1.49942       -1.39875
