19

N          1.53781        1.48834       -0.39729
C          2.41117        0.36715       -0.03733
C          2.80186       -0.47779       -1.26828
C          3.72148       -1.64791       -0.88483
C          2.76508       -2.74661       -0.53657
C          2.15015       -3.58312       -1.62572
C          1.43434       -2.37098       -1.12279
O          1.60982       -1.10668       -1.80849
H          1.07703        1.83724        0.44166
H          0.79473        1.12650       -1.00046
H          1.87364       -0.25411        0.68860
H          3.30689        0.76019        0.45436
H          3.26278        0.15067       -2.03949
H          4.40479       -1.39832       -0.06890
H          4.32495       -1.94933       -1.75078
H          2.79363       -3.07969        0.48928
H          1.75330       -4.55391       -1.34558
H          2.57875       -3.55168       -2.61744
H          0.53985       -2.51093       -0.52868
