12

N          0.92739        0.06473       -0.02320
C          2.18836        0.06473       -0.02320
C          3.70836        0.06473       -0.02320
C          4.42921       -0.87332       -0.64155
C          5.89768       -1.01108       -0.74553
O          6.11264       -2.08496       -1.68014
N          4.86650       -2.69976       -1.99321
C          3.94152       -2.00821       -1.41518
H          4.17331        0.88136        0.51740
H          6.34775       -1.29761        0.20935
H          6.37669       -0.10834       -1.13298
H          2.86768       -2.23099       -1.48465
