13

C          1.47302        0.61249       -0.89190
C          2.55701        0.01113       -0.02768
O          2.82303       -1.18624       -0.13760
C          3.21970        0.90699        0.90151
C          3.07176        2.26788        1.09119
N          3.85412        2.83007        2.08211
C          4.59110        1.89163        2.63346
S          4.39691        0.31095        2.00228
H          1.06121       -0.15827       -1.55035
H          1.88462        1.41169       -1.51388
H          0.66468        0.99647       -0.26341
H          2.40328        2.91522        0.53555
H          5.28260        2.09821        3.43999
