22

C          0.94995        0.83986        0.20878
C          2.12976       -0.07046       -0.00739
C          3.06132       -0.40971        1.17056
N          4.10779       -0.73306        0.15070
C          3.47515        0.32615       -0.73448
C          4.34095        1.59042       -0.59292
C          3.79334        2.85531       -1.24137
N          3.61485        2.72489       -2.67853
H          0.30571        0.44750        1.01273
H          0.33322        0.89662       -0.68782
H          1.24371        1.85122        0.49678
H          1.71269       -0.99826       -0.43841
H          3.31541        0.43261        1.82270
H          2.75994       -1.25186        1.80058
H          4.00394       -1.67256       -0.23440
H          3.44875        0.03344       -1.79306
H          5.32911        1.38137       -1.02249
H          4.52464        1.82006        0.46922
H          4.50695        3.66325       -1.05972
H          2.84722        3.15333       -0.77629
H          4.48733        2.41230       -3.10576
H          3.43306        3.65123       -3.07302
