13

C          1.52366        0.97659       -0.23138
C          2.40619       -0.01302       -0.04090
C          3.21198       -0.20385        1.21296
S          4.95304       -0.15643        0.80287
O          5.34307       -1.23779       -0.07688
O          5.47213        1.19177        0.73349
C          5.74940       -0.70948        2.32297
N          6.21008       -1.07935        3.32742
H          0.96731        1.04969       -1.16244
H          1.33252        1.73779        0.51945
H          2.54823       -0.74738       -0.83455
H          2.99607       -1.18619        1.64280
H          3.02220        0.57487        1.95730
