14

O          2.09385        0.59048        0.37827
C          1.96797       -0.01783       -0.67452
C          2.83792       -1.17467       -0.98677
C          4.14330       -0.85010       -1.67070
N          3.09017       -1.55041       -2.39781
C          3.15431       -2.92806       -2.31561
N          3.01202       -3.54645       -1.17953
C          2.67410       -2.46140       -0.21430
H          1.21664        0.25558       -1.43277
H          5.03365       -1.43387       -1.46256
H          4.31195        0.14875       -2.06590
H          3.36448       -3.43626       -3.26577
H          3.32642       -2.49988        0.66078
H          1.63200       -2.59924        0.09906
