19

C          0.99640       -0.25320        0.69241
C          2.49333       -0.02531        0.58867
C          2.86633        1.32578        0.00855
N          2.41868        2.37891        0.93854
C          3.53545       -0.47695        1.59425
N          3.30386       -1.28046        0.40764
N          2.62745       -2.33498        0.92377
C          2.79814       -3.45452        0.29993
H          0.43102        0.57090        0.24433
H          0.69610       -0.34798        1.73492
H          0.67471       -1.14293        0.13759
H          2.40092        1.48546       -0.96876
H          3.94881        1.43565       -0.12349
H          2.66794        2.11014        1.89118
H          1.40102        2.42380        0.93134
H          3.20377       -0.82042        2.56506
H          4.51754       -0.01242        1.60152
H          2.29337       -4.35802        0.67275
H          3.43377       -3.55230       -0.60011
