18

C          0.91522        0.02262        0.01974
C          2.43634        0.00318        0.08178
C          2.99779        1.10104        0.97519
N          4.35547        0.63322        1.23363
C          4.25017       -0.81212        1.46584
C          3.00314       -1.27789        0.70652
C          3.32489       -2.29365       -0.30390
N          3.56490       -3.11100       -1.09290
H          0.56000        0.95978       -0.42087
H          0.47291       -0.06760        1.01786
H          0.53988       -0.80423       -0.59167
H          2.82638        0.13660       -0.93774
H          2.43770        1.19183        1.91343
H          3.00149        2.07371        0.47457
H          4.76812        1.10894        2.03536
H          4.11415       -0.99681        2.53836
H          5.17291       -1.31406        1.15671
H          2.28946       -1.70023        1.42514
