17

O          1.04538        0.05568        0.11627
C          2.26692        0.10380        0.03385
C          3.12439       -0.42593        1.11255
C          4.46590       -0.42398        1.07690
C          5.37434        0.01688       -0.02537
C          6.50240       -0.99275        0.11288
N          6.64681       -1.24760        1.55250
C          5.32032       -1.02899        2.15074
H          2.77473        0.54314       -0.83767
H          2.58370       -0.83362        1.96077
H          5.73390        1.03340        0.17240
H          4.92867       -0.02500       -1.02173
H          7.43682       -0.62282       -0.32064
H          6.24619       -1.92998       -0.39645
H          7.29224       -0.56529        1.94838
H          5.41301       -0.34060        2.99795
H          4.91103       -1.97838        2.50943
