14

O          2.13018       -0.00633        1.18415
C          2.16458        0.07726       -0.04513
C          3.03470        1.06944       -0.86218
N          2.78044        2.49678       -0.48746
C          4.23176        2.75874       -0.62450
C          4.50164        1.25963       -0.41009
C          5.48937        0.66320       -1.27229
N          6.27315        0.17016       -1.97248
H          1.53559       -0.59164       -0.65606
H          2.91360        0.90653       -1.94252
H          2.43826        2.59736        0.47457
H          4.64465        3.42477        0.13962
H          4.50418        3.15432       -1.61075
H          4.66444        1.01589        0.64880
