14

O          1.00549       -0.19673       -0.05772
N          2.37468        0.09050        0.00333
C          3.03528       -1.02508        0.06815
N          4.39898       -1.12692        0.16924
O          5.09795        0.03079       -0.20237
C          5.15041       -2.36561        0.05444
C          4.85588       -3.20855        1.28453
C          4.60324       -3.93162        2.33970
H          0.60337        0.69311       -0.03734
H          2.52447       -2.00233        0.06962
H          4.45969        0.74173        0.01409
H          6.22708       -2.16588        0.01619
H          4.86800       -2.90725       -0.85429
H          4.39561       -4.51647        3.20619
