13

C          2.20806        1.09664       -0.83090
C          2.49257       -0.02132       -0.15082
S          3.30910       -1.34667       -0.93227
O          2.99333       -2.56962       -0.21822
O          3.07326       -1.27438       -2.36442
C          5.02635       -0.98274       -0.68570
C          5.24099       -0.93180        0.81821
N          5.41905       -0.88954        2.06582
H          1.69147        1.92071       -0.34704
H          2.44902        1.21524       -1.88484
H          2.22574       -0.14651        0.89112
H          5.26473       -0.02729       -1.15839
H          5.61670       -1.78420       -1.13630
