14

O          1.20714       -0.10517       -0.03203
N          2.53914       -0.13913        0.37811
C          3.31684       -1.24674        0.09071
C          3.01432       -2.54369        0.19775
C          4.59671       -0.74157       -0.37078
C          4.62170        0.60059       -0.40309
C          3.26056        1.00197        0.05816
N          2.87695        2.23691        0.13040
H          0.78781       -0.77005        0.54010
H          2.04353       -2.86253        0.57068
H          3.72425       -3.31899       -0.05720
H          5.41469       -1.37943       -0.67293
H          5.40489        1.26359       -0.71653
H          3.62994        2.86031       -0.17075
