16

N          1.24106       -0.02094       -0.08622
N          2.54116       -0.35420       -0.50108
C          3.73511        0.42745       -0.08481
C          4.07624        1.53212       -1.06828
O          4.27764        1.01066       -2.37835
C          4.51560       -0.91431       -0.15819
C          3.10764       -1.54465       -0.08852
O          2.61622       -2.57752        0.30200
H          1.25517        0.83729        0.46529
H          0.90871       -0.76206        0.54116
H          3.63181        0.80998        0.94116
H          3.28149        2.28416       -1.10884
H          4.99772        2.03924       -0.76248
H          3.43765        0.58358       -2.64041
H          5.15751       -1.12919        0.69760
H          5.03953       -1.13715       -1.09220
