14

O          0.80985       -0.04614       -0.04051
C          2.22606        0.05914        0.11352
C          2.86144       -1.12386       -0.55477
N          3.65732       -1.10104       -1.57386
N          3.95751        0.10205       -2.19950
C          3.51379        1.21552       -1.71388
C          2.72519        1.37521       -0.45125
O          3.57621        2.04893        0.48477
H          0.49627       -0.76187        0.53985
H          2.44101       -0.00930        1.18594
H          2.62405       -2.11094       -0.12381
H          3.77252        2.14492       -2.24865
H          1.89383        2.05678       -0.66415
H          4.37894        1.50847        0.60364
