14

N          1.05805       -0.08038       -0.13602
C          2.40274       -0.00786       -0.10645
C          3.25159        1.07687       -0.08809
C          4.58661        0.58076       -0.06820
C          4.51744       -0.79688       -0.07082
O          5.45403       -1.74162       -0.05885
N          3.18817       -1.13333       -0.09076
O          2.70666       -2.44187       -0.08910
H          0.45941        0.73391       -0.05279
H          0.58722       -0.98160       -0.07072
H          2.94860        2.11523       -0.09351
H          5.48912        1.17675       -0.05467
H          6.31646       -1.28701       -0.05084
H          3.56660       -2.89937       -0.09378
