15

O          2.68510       -0.22805       -1.28374
C          2.21607        0.37257       -0.32863
N          2.94345        1.01125        0.63920
C          4.38949        0.95749        0.64085
C          4.95665       -0.28415        1.34924
O          5.29200        0.09627        2.70920
C          5.34774        1.47283        2.64928
C          4.87667        2.02893        1.53861
H          1.13085        0.45530       -0.15166
H          2.46652        1.33257        1.47175
H          4.76778        1.03490       -0.38242
H          5.88549       -0.61630        0.86842
H          4.25885       -1.12727        1.37791
H          5.73928        1.95301        3.53119
H          4.82886        3.08597        1.32985
