13

N          0.88350       -0.25659       -0.02845
C          2.34845       -0.07896       -0.02150
C          3.04533       -1.26402       -0.63287
C          3.96156       -0.95431       -1.54957
O          4.13125        0.37940       -1.82951
S          3.06786        1.34069       -1.02296
O          3.81123        2.23992       -0.16346
O          2.08595        1.81920       -1.97797
H          0.64056       -1.18980        0.29094
H          0.55044       -0.15944       -0.98963
H          2.69909        0.06206        1.00611
H          2.84354       -2.28042       -0.32303
H          4.60366       -1.61660       -2.10736
