19

O          1.54687       -0.42864        0.86021
C          2.29430       -0.09323       -0.05524
C          3.01365       -1.08178       -0.94984
N          4.45878       -0.85568       -0.83157
C          5.19111       -1.83408       -1.63332
C          6.65557       -1.57267       -1.45526
C          7.33834       -1.77861       -0.12325
C          7.61369       -2.72267       -1.25837
H          2.46307        0.97063       -0.28809
H          2.67181       -0.90979       -1.97504
H          2.73816       -2.09609       -0.63672
H          4.72938       -0.98662        0.14577
H          4.93840       -1.72629       -2.69458
H          4.93771       -2.85515       -1.32494
H          6.98979       -0.73629       -2.06089
H          6.75796       -2.14842        0.71362
H          8.11449       -1.07381        0.15449
H          7.21927       -3.72961       -1.17809
H          8.58390       -2.66706       -1.73866
