13

C          0.97244        0.98531       -0.52155
O         -0.28466        0.73458        0.08724
C          0.62337       -0.39040        0.02224
C          1.40937       -0.88580        1.23977
N          1.83494       -0.07179        2.18183
C          2.49539       -0.79921        3.15190
C          2.58057       -2.15594        2.92478
S          1.79893       -2.54310        1.44881
H          1.67780        1.60283        0.02151
H          0.99755        1.11614       -1.59550
H          0.36234       -1.16101       -0.69345
H          2.90121       -0.28435        4.01430
H          3.04715       -2.91379        3.53701
