17

O          3.36357       -0.72204        1.00381
C          2.50879       -0.03683        0.08828
C          2.92704       -0.27966       -1.36272
C          4.38746        0.12057       -1.71643
N          4.52537       -1.13350       -2.49109
C          3.40527       -1.71863       -1.72123
C          1.91170        0.26268       -2.26900
C          1.06106        0.69748       -2.99729
H          2.89874       -0.74962        1.85877
H          2.54755        1.03145        0.33098
H          1.48670       -0.39330        0.26212
H          5.07244        0.18006       -0.86204
H          4.51282        1.03041       -2.31269
H          5.41753       -1.60913       -2.36392
H          3.74192       -2.32987       -0.87532
H          2.71888       -2.32727       -2.31901
H          0.30358        1.07896       -3.64454
