19

C          1.07466        0.07215       -0.07658
C          2.56099       -0.01898       -0.07568
C          3.35681       -0.77316       -1.10662
N          2.72752       -1.49408       -2.21029
C          3.36505        0.73985       -1.10011
N          4.56234        1.47271       -0.70089
C          4.48786        2.73118       -0.18518
N          3.44570        3.40657        0.14753
H          0.65902       -0.63440        0.64838
H          0.63016       -0.14280       -1.05205
H          0.76257        1.07864        0.21916
H          2.94346       -0.01599        0.94149
H          4.25724       -1.26160       -0.73910
H          1.94389       -0.98052       -2.61261
H          2.34291       -2.38240       -1.88715
H          2.83367        1.23295       -1.91165
H          5.46085        1.17773       -1.07008
H          5.48285        3.18396       -0.04397
H          2.61212        2.84351       -0.03380
