18

C          1.08260       -0.01460        0.02139
O          2.49517        0.10538        0.14753
C          3.01639        0.32957        1.40616
C          2.30237        0.53342        2.52684
C          4.53226        0.30222        1.43879
N          5.08550        1.64778        1.23653
N          6.43002        1.72013        1.08627
C          6.85019        2.88727        0.72790
H          0.85590       -0.26321       -1.01961
H          0.59235        0.93495        0.25773
H          0.69643       -0.82217        0.64990
H          1.22117        0.56319        2.54911
H          2.80920        0.70949        3.47253
H          4.89439       -0.36966        0.65025
H          4.88668       -0.10626        2.39253
H          4.57027        2.08777        0.47203
H          7.92693        3.04855        0.56265
H          6.18825        3.75668        0.57045
