15

O          2.88664       -2.47029        1.10410
C          2.26943       -1.92548        0.19483
C          2.90402       -1.06466       -0.86207
C          4.41440       -0.93219       -0.69491
C          5.19912       -2.20880       -0.90791
C          5.53232       -2.03091       -2.33513
N          5.36785       -0.83902       -2.79860
O          4.89260       -0.04536       -1.72438
H          1.17694       -2.05175        0.10321
H          2.43876       -0.07364       -0.80553
H          2.64668       -1.47529       -1.84443
H          4.64977       -0.49180        0.28022
H          4.64625       -3.13322       -0.73337
H          6.13365       -2.22484       -0.33906
H          5.93175       -2.86392       -2.92847
