17

O          1.15188        0.06226       -0.16206
C          2.58839        0.01072       -0.02680
C          3.29070       -0.79713       -1.07944
O          2.44462       -1.38433       -2.08890
C          3.39040        0.71234       -1.10210
N          4.65238        1.37914       -0.70907
C          5.72067        1.04516       -1.65338
C          5.05545        2.38765       -1.68864
H          0.72745       -0.44849        0.55115
H          3.00372        0.00692        0.97601
H          4.16676       -1.35922       -0.77576
H          1.54441       -1.01317       -2.01211
H          2.78828        1.23609       -1.84201
H          5.51401        0.34697       -2.45579
H          6.71336        0.97597       -1.22636
H          4.40283        2.61513       -2.52253
H          5.60321        3.23469       -1.29397
