18

C          2.80564       -0.09853       -1.29678
O          2.46701       -0.09660        0.08372
C          2.94916        1.08069        0.74265
C          2.40449        1.05645        2.16546
O          4.38272        1.05850        0.79970
C          5.01436        2.25070        0.85433
N          4.40811        3.38964        0.82377
N          5.24303        4.45297        0.88328
H          2.44321       -1.03208       -1.73749
H          3.88884       -0.05187       -1.43659
H          2.32326        0.73894       -1.81046
H          2.56565        1.95881        0.20858
H          2.69874        0.13291        2.67347
H          1.31068        1.09402        2.16376
H          2.79011        1.89225        2.75782
H          6.10505        2.10487        0.91835
H          4.69514        5.31790        0.87272
H          5.85246        4.50512        0.06288
