17

O          1.65351       -0.04680        0.95395
C          2.96560        0.03435        0.34204
C          3.59598       -1.29738       -0.13569
N          4.86661       -0.94518        0.52199
C          4.18490        0.10907        1.30132
C          4.81330        1.42690        1.09358
C          4.22073        2.07177        0.08132
C          3.09918        1.28959       -0.54302
H          1.10675       -0.53227        0.31419
H          3.66134       -1.42926       -1.21951
H          3.12130       -2.18886        0.28959
H          5.56944       -0.58023       -0.12078
H          3.98733       -0.14858        2.34639
H          5.62178        1.81112        1.69925
H          4.49956        3.06318       -0.25070
H          3.34502        1.03321       -1.57897
H          2.18159        1.88738       -0.53994
