12

O          1.12029       -0.09971        0.20131
C          2.48528       -0.01762        0.12676
C          3.19457        0.93170        0.73078
C          2.71106        2.03176        1.56326
N          3.68050        2.79523        1.98084
N          4.83998        2.24433        1.45565
C          4.65377        1.10511        0.68462
O          5.47089        0.41748        0.10713
H          0.82490       -0.82482       -0.38125
H          2.94053       -0.79394       -0.47675
H          1.64249        2.15902        1.78294
H          5.74113        2.66856        1.63805
