18

C          1.15277        0.13225       -0.10445
O          2.55830       -0.05696        0.07697
C          3.13202       -0.94211        0.92751
N          2.57395       -1.77947        1.73281
C          1.15984       -1.97298        1.91933
N          4.50717       -0.88202        0.86882
C          5.34671       -0.03936        0.05986
O          5.19781       -1.75998        1.71461
H          1.02402        0.91573       -0.85735
H          0.68744        0.48438        0.81792
H          0.68705       -0.77534       -0.49280
H          1.01050       -2.75540        2.67137
H          0.66856       -2.32747        1.01005
H          0.66896       -1.07829        2.30969
H          4.77538        0.63316       -0.58670
H          5.98858       -0.65197       -0.58122
H          5.98790        0.57710        0.69793
H          4.46433       -2.23233        2.16824
