15

O          2.86101       -0.40792       -1.57778
C          2.31793        0.43202       -0.86583
N          2.96683        1.34446       -0.05230
C          2.23054        2.11552        0.82390
O          1.00945        2.18647        0.88978
C          4.40955        1.33828        0.00152
C          5.22402        1.69833       -1.21750
C          5.24158        2.59697       -0.01983
H          1.21920        0.50165       -0.81057
H          2.86982        2.71732        1.49170
H          4.78838        0.51334        0.60241
H          4.70109        2.03708       -2.10524
H          6.09762        1.09211       -1.42947
H          4.75313        3.55966       -0.11377
H          6.14802        2.61773        0.57554
