16

C          1.17032       -0.01897        0.18518
O          2.56944       -0.01984       -0.00660
C          3.07934       -0.05708       -1.29121
C          2.42900       -0.13174       -2.47220
N          1.10830       -0.22449       -2.82561
C          4.59071       -0.04583       -1.38841
N          5.21671       -0.01207       -0.17685
O          5.22637       -0.07145       -2.43310
H          0.97911        0.01483        1.26111
H          0.71484       -0.93949       -0.19828
H          0.71473        0.87387       -0.25513
H          3.03764       -0.15409       -3.37925
H          0.37767       -0.02969       -2.15648
H          0.87555       -0.07752       -3.80420
H          4.68041       -0.01170        0.68090
H          6.22557       -0.02731       -0.14913
