15

C          0.89559       -0.10702        0.09082
N          2.33268       -0.03091        0.09195
S          3.15371        1.45092        0.07964
C          4.66881        0.61816        0.07596
C          4.57177       -0.71731        0.08176
C          5.66453       -1.71844        0.07967
C          3.14834       -1.14477        0.09003
O          2.79777       -2.31493        0.09344
H          0.43959        0.88700        0.09606
H          0.57116       -0.66467        0.97470
H          0.57210       -0.65547       -0.79915
H          5.60570        1.16017        0.06911
H          6.64808       -1.23730        0.07342
H          5.59860       -2.35780       -0.80631
H          5.60718       -2.35238        0.97012
