20

C          0.96032        0.17700        0.41919
C          2.45221       -0.00536        0.10348
C          2.70320       -1.35517       -0.58343
N          2.34240       -1.15255       -2.00228
C          3.44029       -0.76558       -2.87267
C          2.58615        0.30502       -2.24677
C          2.91450        1.00888       -0.95298
N          4.34631        1.29974       -0.86954
H          0.62677       -0.57393        1.14331
H          0.33227        0.08066       -0.47272
H          0.77543        1.16659        0.85022
H          3.01519        0.08162        1.03967
H          2.08998       -2.14939       -0.14721
H          3.75177       -1.66256       -0.47398
H          3.29111       -0.96282       -3.92883
H          4.45470       -0.93360       -2.53823
H          1.82607        0.79993       -2.83658
H          2.36304        1.95218       -0.87653
H          4.87783        0.43149       -0.86712
H          4.54365        1.73499        0.03077
