19

C          1.03209        0.01353        0.00530
O          2.44278       -0.15711        0.06310
N          3.05156        1.09439       -0.09218
C          4.35029        1.00232       -0.10411
C          5.13495       -0.28165        0.04787
C          5.15536        2.28372       -0.28608
C          5.49631        2.89259        1.04287
C          6.74450        3.14410        1.46103
H          0.56122       -0.97000        0.08734
H          0.74149        0.46317       -0.94941
H          0.69195        0.63840        0.83644
H          4.50200       -1.16497        0.14475
H          5.77210       -0.21154        0.93329
H          5.76932       -0.41155       -0.83412
H          4.56091        2.99901       -0.86743
H          6.05488        2.05389       -0.86794
H          4.65806        3.17048        1.68011
H          7.61205        2.90436        0.85456
H          6.92192        3.61523        2.42323
