16

O          2.67351        1.07565        0.69625
C          2.36910       -0.08608       -0.07731
C          3.00259       -0.01837       -1.47314
N          2.82695       -1.36371       -2.16508
C          2.29209       -1.04650       -3.30951
N          2.04040        0.26127       -3.53677
C          2.36397        0.98983       -2.43638
C          2.14650        2.29003       -2.21890
H          2.18731        0.98496        1.53386
H          1.28057       -0.19180       -0.14054
H          2.76078       -0.95309        0.46560
H          4.07833        0.18354       -1.39998
H          2.01112       -1.75769       -4.10069
H          1.52223        0.64108       -4.31327
H          1.67474        2.92037       -2.96340
H          2.43828        2.75358       -1.28235
