17

O          1.92620       -0.21443       -0.97206
C          2.98410        0.52187       -0.35936
C          2.75255        2.02380       -0.49785
C          1.33310        2.44157       -0.76202
O          1.04649        3.51006       -1.28752
C          4.28691        0.13702       -1.01547
C          5.56252        0.84226       -0.60754
N          5.35856       -0.56966       -0.31928
H          1.62766       -0.89215       -0.33931
H          2.99935        0.24877        0.70515
H          3.08157        2.51250        0.42693
H          3.36078        2.44035       -1.31556
H          0.54420        1.79119       -0.34453
H          4.17121       -0.09462       -2.07155
H          5.55719        1.51576        0.24041
H          6.26252        1.09731       -1.39462
H          5.16255       -0.71550        0.67049
