13

N          0.95310       -0.11871        0.15864
C          2.29159       -0.24917        0.30382
C          2.97699       -1.04473        1.19086
C          4.07026       -0.38743        0.46064
N          5.03840        0.17673       -0.15176
O          4.72600        0.50032       -1.44764
C          3.95301       -1.93877        2.18820
N          4.84505       -2.47227        2.78394
H          0.56564        0.52206       -0.55617
H          0.18439       -0.58171        0.67508
H          2.65664        0.48420       -0.51382
H          4.78032       -0.38906        1.24605
H          5.55962        0.90742       -1.73371
