17

O          2.83693       -1.33689       -0.53685
C          2.42802       -1.09484        0.80530
C          2.97550        0.24702        1.29110
C          4.47939        0.25050        1.36949
C          5.17036        0.46428        2.49500
N          6.53741        0.46227        2.50615
C          7.31448        0.67290        3.61225
O          8.53847        0.66532        3.58574
H          2.50192       -2.21652       -0.78220
H          2.77762       -1.91843        1.43685
H          1.33356       -1.07718        0.82510
H          2.53855        0.47862        2.26936
H          2.67315        1.04022        0.59722
H          4.99686        0.07202        0.42842
H          4.66924        0.64890        3.44238
H          7.04991        0.29852        1.64628
H          6.74172        0.85194        4.53685
