17

O          2.63278        2.60802       -2.10399
C          2.33185        1.73883       -1.01823
C          2.89957        0.36235       -1.29934
C          4.40542        0.41279       -1.27374
O          5.05645        0.27832       -0.24031
C          5.07457        0.65183       -2.58548
C          6.39759        1.36546       -2.66926
N          6.33640       -0.08891       -2.78085
H          2.28203        3.48648       -1.87002
H          1.24275        1.68075       -0.92694
H          2.74335        2.16672       -0.09875
H          2.56727       -0.01601       -2.27202
H          2.57241       -0.35260       -0.53593
H          4.43391        0.71641       -3.45657
H          6.84184        1.76626       -1.76629
H          6.62770        1.90142       -3.58213
H          6.62136       -0.51515       -1.89155
