16

C          2.68220       -1.37830        0.59712
O          2.35488       -0.19457       -0.11655
C          3.16360        0.96636        0.19374
C          2.77671        2.27497       -0.54143
N          2.87855        2.96003        0.76175
N          2.02909        4.02794        1.07583
C          2.78916        1.77826        1.47389
O          2.52109        1.55992        2.63211
H          2.05614       -2.19273        0.22315
H          2.49312       -1.24373        1.66500
H          3.73184       -1.63951        0.43081
H          4.23490        0.73589        0.14189
H          1.77173        2.29625       -0.97533
H          3.51201        2.63227       -1.26603
H          2.46373        4.88580        0.73725
H          2.01143        4.11343        2.09873
