17

O          3.31313       -0.19553       -2.17693
C          2.51445        0.17206       -1.14262
O          1.33905       -0.15207       -1.06293
C          3.22732        1.07752       -0.14330
N          4.69399        0.88547       -0.25642
C          5.37929        1.77595        0.72439
C          6.31454        0.59731        1.04413
C          5.13300       -0.27471        0.58230
H          4.21127        0.16994       -1.99726
H          2.84335        0.87172        0.86184
H          2.97684        2.10766       -0.41942
H          4.77646        2.10310        1.58180
H          5.86794        2.65089        0.28284
H          6.61837        0.48919        2.08775
H          7.19887        0.53629        0.39880
H          4.45984       -0.56547        1.39879
H          5.41030       -1.16884        0.01709
