17

O          1.71899       -0.72295        0.67394
C          2.27730        0.07059       -0.07875
C          2.95866       -0.34737       -1.32149
C          3.53926        0.57605       -2.10446
C          4.23362        0.23376       -3.37811
N          4.57389       -1.17805       -3.54280
C          3.57053       -2.11409       -3.03948
C          2.95402       -1.80119       -1.66677
H          2.29502        1.15555        0.14732
H          3.50960        1.63272       -1.84523
H          5.16783        0.80549       -3.42699
H          3.62025        0.57233       -4.21936
H          5.46974       -1.36142       -3.11204
H          4.03748       -3.10473       -2.98374
H          2.76784       -2.21329       -3.78378
H          3.50138       -2.34803       -0.88728
H          1.92205       -2.17394       -1.66040
