14

C          1.02909        0.06869       -0.02322
O          2.44603        0.15064       -0.07469
N          2.98159       -0.92065        0.66069
C          4.27008       -0.88789        0.64305
C          5.14354       -1.86332        1.31390
C          6.40573       -1.50851        1.07573
C          6.27034       -0.31400        0.25768
N          5.05633        0.04161        0.00982
H          0.61229        0.90122       -0.59602
H          0.68196        0.14445        1.01188
H          0.68684       -0.87102       -0.46760
H          4.77102       -2.69603        1.88240
H          7.32165       -1.96864        1.39404
H          7.16907        0.21005       -0.09759
