19

N          3.14581       -1.21282        0.07026
C          2.51101        0.10354        0.09754
C          3.11161        1.02680       -0.95662
C          4.58038        1.41623       -0.72071
C          4.37975        2.91773       -0.56856
C          3.42087        3.35334       -1.70891
C          2.51260        2.42915       -0.85039
O          3.18809        3.06779        0.32942
H          2.71604       -1.80046        0.78487
H          4.12459       -1.12553        0.34075
H          2.60488        0.53106        1.10273
H          1.43837       -0.01830       -0.09516
H          2.96876        0.61108       -1.96146
H          5.21076        1.17142       -1.58110
H          5.01291        0.97462        0.18155
H          5.20970        3.57493       -0.30974
H          3.66314        3.01528       -2.71936
H          3.14793        4.41294       -1.71884
H          1.43562        2.59713       -0.88478
