14

S          1.35848        0.03214        0.26629
C          2.91013       -0.24487       -0.26647
N          3.09537       -0.84392       -1.41856
C          4.40850       -0.85825       -1.44593
C          5.18537       -1.35126       -2.39429
C          7.05130       -1.10307       -1.91763
C          6.05677       -0.73044       -1.20107
N          4.40074       -0.08948        0.03236
H          2.42034       -1.17611       -2.05744
H          5.58900       -0.19936       -0.17852
H          4.84060       -1.81340       -3.28309
H          7.74364       -0.70301       -1.14757
H          6.66984       -1.37476       -2.43948
H          4.52477        0.38325        0.94155
