21

C          0.85220        0.02317        0.20079
C          2.37717       -0.10371        0.08542
C          3.01248        0.34145        1.40707
C          2.79216       -1.54085       -0.26541
C          2.81800       -1.56276       -1.79047
N          3.31626       -0.23448       -2.19442
C          2.27609        0.75314       -2.43881
C          2.93777        0.68167       -1.08551
H          0.47540       -0.55220        1.05422
H          0.33354       -0.35019       -0.68818
H          0.55470        1.06869        0.33911
H          2.68092       -0.28902        2.23917
H          2.74525        1.37911        1.63833
H          4.10631        0.29309        1.36272
H          2.12122       -2.29931        0.15161
H          3.80377       -1.75109        0.10624
H          1.82232       -1.77165       -2.20154
H          3.48944       -2.34670       -2.15406
H          1.26125        0.40991       -2.58471
H          2.55593        1.57360       -3.09028
H          3.68477        1.42344       -0.83249
