16

N          1.20158        0.01055       -0.14391
C          2.56046       -0.03989       -0.18299
C          3.32332       -0.61684       -1.11830
C          4.80336       -0.55188       -1.00339
O          5.36263        0.01180       -0.06924
N          5.45345       -1.18281       -2.04650
C          6.82062       -1.23994       -2.14090
C          7.44406       -1.85191       -3.14990
H          0.74079        0.43924        0.65217
H          0.63953       -0.46073       -0.84181
H          3.02410        0.47073        0.66279
H          2.88293       -1.12508       -1.96578
H          4.90827       -1.62272       -2.77620
H          7.38444       -0.75649       -1.34380
H          6.91123       -2.34114       -3.95689
H          8.52881       -1.87195       -3.18278
