14

C          1.01027       -0.12724        0.27588
O          2.41665        0.01244        0.09767
N          3.06112       -0.75649        1.07874
C          4.35156       -0.68321        0.98524
C          5.15270        0.09338       -0.00559
C          6.49222        0.10698       -0.02295
C          4.96434       -1.49631        2.02267
N          5.49240       -2.13542        2.83811
H          0.50285        0.46995       -0.48607
H          0.71636        0.23773        1.26494
H          0.71636       -1.17485        0.15782
H          4.59253        0.66616       -0.73640
H          7.10481       -0.44656        0.68330
H          7.02289        0.69195       -0.76931
