17

C          1.10891       -0.07811        2.37902
O          2.53499       -0.01216        2.37350
C          3.08400       -0.11640        1.13479
O          2.47047       -0.23976        0.08271
C          4.56841       -0.05270        1.19237
N          5.28939       -0.77783        0.12041
C          5.34535        0.68011        0.12673
C          6.62919        1.35477        0.46357
H          0.77123       -0.02692        3.41786
H          0.76453       -1.02459        1.95029
H          0.68565        0.77163        1.83442
H          5.01140       -0.13768        2.17807
H          4.61226       -1.10283       -0.57961
H          4.80534        1.18905       -0.66393
H          7.19153        0.81799        1.23518
H          6.43437        2.36779        0.82941
H          7.26140        1.43131       -0.42672
