18

N          0.99740        0.01257        0.09323
C          2.28993        0.01823        0.06720
C          3.08256       -1.26447        0.18197
C          3.99799       -1.18639        1.40033
O          5.09190       -0.30889        1.12565
C          4.91347        1.04982        1.54260
C          3.54428        1.68762        1.24292
N          2.99063        1.19845       -0.02424
H          0.62816       -0.94023        0.15575
H          3.66709       -1.38554       -0.73706
H          2.40148       -2.11632        0.27997
H          4.42928       -2.17716        1.57628
H          3.47117       -0.89186        2.31597
H          5.68726        1.62295        1.01810
H          5.13880        1.12449        2.61194
H          3.64877        2.77642        1.20284
H          2.84648        1.47172        2.06273
H          3.77314        1.09858       -0.66966
