14

N          1.21096        0.12170        0.11778
C          2.59108        0.09056        0.06919
C          3.29609       -0.38273       -1.21213
C          2.30835       -0.78120       -2.29655
N          1.48893       -1.11177       -3.19617
C          3.29809        0.48525        1.14838
C          4.77706        0.51911        1.24990
O          5.53686        0.18826        0.35057
H          0.63839       -0.19332       -0.66287
H          0.72294        0.40882        0.95951
H          3.92033       -1.25708       -0.99594
H          3.92136        0.42235       -1.61446
H          2.78938        0.81736        2.04742
H          5.15368        0.87715        2.22257
