14

N          1.00090        0.05310        0.18234
N          2.35384        0.07163       -0.19672
C          3.07795        1.23339       -0.29883
O          2.70069        2.36443       -0.02628
C          4.44109        0.87344       -0.81015
C          4.52049       -0.63744       -0.64216
C          3.11374       -1.06610       -0.33335
O          2.76659       -2.22520       -0.15646
H          0.76186        0.99336        0.51164
H          0.91079       -0.57039        0.98689
H          5.22048        1.38296       -0.23807
H          4.50975        1.15936       -1.86446
H          5.16483       -0.90276        0.20237
H          4.88463       -1.12609       -1.54972
