14

C          1.04145       -0.07505       -0.04182
C          2.53421       -0.04726       -0.01598
C          3.24089        1.00107        0.43600
C          4.66433        0.98262        0.44475
N          5.46352        0.00840        0.04120
N          6.80362        0.30474        0.18448
C          6.98243        1.50178        0.69443
S          5.54184        2.35619        1.03678
H          0.69462       -0.99659       -0.52007
H          0.64253        0.76794       -0.61407
H          0.63444       -0.05095        0.97365
H          3.04392       -0.93587       -0.38726
H          2.72553        1.88253        0.80693
H          7.96534        1.91158        0.88090
