20

C          0.91877        0.01108        2.39836
O          2.33926       -0.01323        2.34464
C          2.81578       -0.71917        1.20192
C          4.34002       -0.72950        1.22449
C          4.87478       -1.41246        2.48102
N          6.32364       -1.49045        2.43990
C          7.05712       -1.98895        3.46312
N          8.33686       -1.95959        3.54073
H          0.61841        0.55869        3.29561
H          0.52051       -1.00631        2.46011
H          0.51194        0.52386        1.52183
H          2.46467       -0.21960        0.29177
H          2.43014       -1.74530        1.21253
H          4.71330        0.30202        1.19462
H          4.71456       -1.23658        0.32728
H          4.46608       -2.42694        2.55370
H          4.56556       -0.86115        3.37597
H          6.79790       -0.93425        1.74023
H          6.46065       -2.44896        4.27020
H          8.72027       -1.51186        2.70671
