18

C          0.98342       -0.09635        0.03248
C          2.50316        0.10859       -0.05319
C          2.82341        1.56605       -0.41275
C          3.62983        1.97912       -1.59294
C          4.32224        1.26855       -2.48171
N          4.54107       -0.06154       -2.59557
C          3.94567       -0.94056       -1.87862
N          3.02494       -0.95391       -0.87888
H          0.51603        0.64827        0.68532
H          0.74585       -1.08713        0.43614
H          0.52208       -0.02556       -0.95955
H          2.89446       -0.05989        0.95899
H          3.32483        2.00551        0.46215
H          1.88068        2.12723       -0.48255
H          3.65505        3.05969       -1.73746
H          4.83548        1.83592       -3.25920
H          4.21953       -1.98136       -2.13203
H          2.82766       -1.87785       -0.50614
