14

N          1.07968        0.09374       -0.23293
C          2.23630        0.12293       -0.14305
C          3.66039        0.18325       -0.01958
O          4.36826       -0.48763       -1.06961
C          4.46342        0.94729       -1.05056
C          5.86437        1.47814       -0.78619
C          7.03953        1.17378       -1.68537
N          6.44249        2.50073       -1.66237
H          4.06166        0.10185        0.98244
H          3.89547        1.47510       -1.81327
H          6.11118        1.61708        0.26533
H          6.87645        0.57605       -2.57373
H          8.01828        1.08056       -1.23134
H          5.87835        2.64954       -2.50056
