16

N          1.46475        0.79467        0.48683
C          2.51790       -0.08775       -0.00406
C          2.96434        0.33479       -1.35595
C          3.02390        1.58467       -1.95313
C          3.55048        1.41999       -3.25766
C          3.81590        0.07762       -3.42203
N          3.46685       -0.55429       -2.26462
O          3.60977       -1.91407       -2.02773
H          1.12689        0.43682        1.37723
H          0.67850        0.74449       -0.15889
H          2.13611       -1.11432       -0.01802
H          3.36639       -0.05576        0.68766
H          2.71630        2.51257       -1.48610
H          3.72343        2.19770       -3.99022
H          4.22744       -0.45950       -4.26361
H          3.85510       -2.22520       -2.91277
