11

N          1.08585        0.10359        0.03277
S          2.78507        0.07276        0.00498
O          3.18405       -1.05972        0.81257
O          3.14535        0.17529       -1.39354
C          3.36343        1.56558        0.80785
O          2.66569        2.57774        0.81426
C          4.66890        1.55634        1.42797
C          5.75059        1.55538        1.95101
H          0.72180       -0.76469       -0.36102
H          0.73786        0.92891       -0.46111
H          6.70798        1.55472        2.42002
