18

C          1.13826       -0.02694        0.30581
C          2.61525        0.01169       -0.05521
N          2.99160       -1.15647       -0.83733
C          2.87558       -1.16953       -2.28404
C          2.79191       -2.65273       -2.61403
N          3.36829       -3.28531       -1.45695
C          3.32554       -2.42605       -0.36557
S          3.59184       -2.93444        1.18517
H          0.86175        0.85762        0.88574
H          0.90021       -0.91461        0.90198
H          0.51448       -0.05907       -0.59321
H          3.21474        0.04138        0.85962
H          2.84725        0.90908       -0.63891
H          3.78605       -0.71690       -2.69465
H          1.99946       -0.61363       -2.62523
H          3.32684       -2.93488       -3.52153
H          1.74656       -2.97820       -2.68232
H          3.40880       -4.28590       -1.30514
