17

C          1.11239       -0.64861       -0.47034
N          2.33484       -0.07276        0.05385
C          3.00205       -0.63845        1.09261
C          3.84787        0.08238        1.90360
S          4.53545       -0.88005        3.14071
C          3.72615       -2.28024        2.58399
C          3.90869       -3.58869        3.27094
C          2.94732       -2.00769        1.47503
H          0.77257       -0.06141       -1.32967
H          0.32069       -0.62968        0.28582
H          1.26150       -1.67693       -0.81395
H          2.37263        0.93897       -0.04840
H          4.09385        1.13227        1.84483
H          4.47825       -3.49706        4.20083
H          4.43925       -4.28748        2.61578
H          2.93443       -4.02427        3.51886
H          2.37179       -2.77116        0.96915
