18

N          3.17862       -2.32659       -1.38901
C          2.52483       -1.59566       -0.56138
N          3.05496       -0.93211        0.49717
C          4.48259       -0.85586        0.74642
C          4.93662       -1.91728        1.72605
C          4.89443       -3.39684        1.31139
O          6.24408       -3.59081        1.82554
C          6.45236       -2.15503        1.77896
H          2.54039       -2.70846       -2.09209
H          1.43461       -1.45391       -0.66062
H          2.47259       -0.26590        0.99031
H          4.69987        0.13284        1.16664
H          5.04173       -0.91279       -0.19545
H          4.51059       -1.75888        2.72628
H          4.85637       -3.61894        0.24254
H          4.16349       -4.00801        1.84896
H          7.02365       -1.87477        0.88505
H          6.95787       -1.78115        2.67194
