16

O          1.18208        0.08731       -0.46087
N          2.45654        0.26159        0.08854
C          3.06659        1.42068       -0.30640
N          2.47155        2.50054       -0.67935
O          4.41905        1.30799       -0.26385
C          5.21825        2.42889       -0.68859
C          6.70386        2.19327       -0.63871
C          5.99719        2.24169       -1.96121
H          0.74903       -0.52670        0.16265
H          3.07892       -0.53707       -0.00908
H          1.46967        2.27923       -0.62671
H          4.87639        3.43112       -0.44462
H          7.05576        1.23148       -0.28442
H          7.33690        3.02894       -0.36703
H          5.86662        1.31523       -2.50736
H          6.14824        3.11170       -2.58932
