16

O          3.40955       -1.40064       -1.34717
C          3.66491       -0.66194       -0.40927
C          4.18135        0.71233       -0.67140
N          4.44733        1.49393        0.32699
N          4.94956        2.67268       -0.10646
C          4.64516        3.88426        0.71826
C          6.03208        4.41317        0.30234
C          6.39128        2.92003        0.21559
H          3.55903       -0.93446        0.65134
H          4.31753        0.97208       -1.73437
H          4.54050        3.69732        1.79499
H          3.79350        4.47654        0.37238
H          6.57705        5.00473        1.04061
H          6.04586        4.93215       -0.66405
H          6.72909        2.48395        1.16512
H          7.09078        2.64041       -0.57623
