14

N          2.81083        3.27334       -0.05647
C          2.33389        2.17640        0.41338
N          3.03855        1.04303        0.66100
C          4.46767        1.09198        0.50121
C          5.19475        2.07410        1.43035
O          5.98316        0.98967        1.99704
C          5.29508        0.04987        1.30023
O          5.35270       -1.15448        1.40383
H          2.05864        3.96689       -0.14553
H          1.26331        2.08016        0.66414
H          2.65922        0.33217        1.27815
H          4.76356        1.14490       -0.55183
H          4.59442        2.56167        2.20514
H          5.82432        2.81450        0.92841
