11

O          2.32062        1.10884        0.14939
C          2.30975       -0.10038       -0.01675
C          3.00821       -0.70638       -1.18921
N          2.99729       -1.98027       -1.42383
C          3.73661       -2.13522       -2.56959
O          3.98976       -3.17061       -3.15740
C          4.20381       -0.80760       -3.00902
C          3.74986        0.10050       -2.14625
H          1.80947       -0.82015        0.64967
H          4.80678       -0.66296       -3.88758
H          3.87739        1.16750       -2.12685
