18

C          0.90435       -0.04823        0.13980
C          2.38808        0.04770        0.09386
C          3.17874        1.19154        0.03578
C          2.79890        2.63091        0.01833
N          4.48747        0.78260       -0.02102
N          5.61280        1.62463       -0.10444
C          4.56084       -0.57646        0.01699
C          3.27702       -1.06594        0.09134
H          0.42489        0.93381        0.15404
H          0.58665       -0.59035        1.03621
H          0.53528       -0.58898       -0.73766
H          1.71418        2.76597        0.01431
H          3.19654        3.12623       -0.87321
H          3.19063        3.14007        0.90491
H          5.47312        2.47975        0.42708
H          6.43205        1.18486        0.30668
H          5.50982       -1.09084       -0.02273
H          3.00420       -2.11238        0.12780
