15

C          2.26196       -1.46443        0.41458
O          2.37053       -0.09040        0.06057
C          3.00550        0.11991       -1.11485
C          3.20090        1.36883       -1.64932
C          2.86320        2.74149       -1.23759
O          3.86541        1.24398       -2.83368
N          4.11651       -0.09722       -3.08644
C          3.59632       -0.75476       -2.04625
H          1.72863       -1.52765        1.36777
H          3.25093       -1.91547        0.55177
H          1.68303       -2.01941       -0.33196
H          2.33515        2.75330       -0.27949
H          2.22177        3.21851       -1.98526
H          3.77174        3.34265       -1.13213
H          3.67656       -1.83120       -2.02630
