14

N          1.91444       -0.43663       -0.33658
C          2.83178        0.46629        0.35880
C          2.71556        0.22749        1.90150
C          4.10893       -0.25450        1.83709
N          5.18819       -0.49495        2.53844
S          6.42773       -0.64372        1.37619
C          5.44749       -0.19874       -0.01063
C          4.20029       -0.05625        0.47853
H          2.01060       -0.40776       -1.35030
H          0.93260       -0.24091       -0.14524
H          2.79188        1.48548       -0.03652
H          2.01808       -0.53871        2.26629
H          2.58381        1.08672        2.56663
H          5.87234       -0.03038       -0.98824
