16

O          1.22279        0.13633       -0.00962
N          2.53672       -0.29270       -0.23888
C          2.92397       -1.28668        0.63322
N          3.95110       -1.11998        1.40581
C          4.38685        0.25797        1.13702
C          3.62578        1.27109        2.02914
C          3.18418        2.00335        0.74845
C          3.53247        0.74950       -0.07300
H          0.68385       -0.61004       -0.32325
H          2.30346       -2.19757        0.61928
H          5.46744        0.40405        1.05171
H          4.24623        1.85853        2.71106
H          2.78553        0.85448        2.59785
H          3.83021        2.85687        0.50500
H          2.14933        2.35393        0.72607
H          4.08155        0.92852       -1.00225
