17

N          1.10284        0.03903        0.02178
C          2.55537        0.04553        0.02529
C          3.06203       -0.91293        1.09068
C          3.49664       -1.73509        2.00456
C          3.97093       -2.70340        2.99957
O          3.84212       -4.02286        2.46225
C          4.25501       -5.00242        3.32139
C          4.18854       -6.29107        2.98464
H          0.76676        0.74107       -0.63281
H          0.76884        0.31445        0.94322
H          2.92990        1.05232        0.23640
H          2.93421       -0.26664       -0.95277
H          3.37415       -2.61614        3.91538
H          5.02236       -2.50352        3.23797
H          4.63459       -4.67148        4.27879
H          3.80160       -6.59094        2.01605
H          4.51657       -7.06712        3.66687
