17

O          1.07904       -0.12083       -0.04236
C          2.30256       -0.07219       -0.01122
C          3.01110        0.68722        1.03348
C          4.34689        0.73473        1.05328
N          5.10829        1.43493        1.95323
C          6.55559        1.29767        1.98401
C          7.43124        1.79547        0.86989
C          7.39451        2.53095        2.17682
H          2.92959       -0.58516       -0.75870
H          2.39186        1.20514        1.75592
H          4.94036        0.21022        0.30528
H          4.61773        1.83198        2.75138
H          6.88134        0.40157        2.50750
H          6.95796        2.25889        0.01281
H          8.32604        1.23121        0.63508
H          6.89542        3.49353        2.19526
H          8.25651        2.46297        2.82819
