15

C          1.15968        0.23010        0.39866
C          2.57615       -0.00615       -0.10653
C          3.11200       -1.34985        0.27504
C          4.19407       -1.59707        1.02583
S          4.47443       -3.30560        1.21208
C          3.06166       -3.68711        0.22272
O          2.67427       -4.80850       -0.05243
N          2.49727       -2.49677       -0.16809
H          0.84336        1.25246        0.16759
H          1.09465        0.09169        1.48299
H          0.44801       -0.45372       -0.07703
H          3.22588        0.78160        0.29415
H          2.59643        0.09752       -1.19823
H          4.83935       -0.85231        1.47228
H          1.66990       -2.50616       -0.74698
