17

N          0.75949        0.05675        0.13486
C          2.22396        0.08223        0.25433
C          3.07854       -0.70191       -0.71055
O          4.27893       -1.34862       -0.21122
C          5.18396       -0.59269        0.60197
C          5.27361        0.86326        0.25606
C          4.27763        1.49129       -0.38343
C          3.05250        0.80314       -0.78754
H          0.38623       -0.76514        0.61060
H          0.46514       -0.02757       -0.83723
H          2.56273        0.13998        1.28602
H          2.56936       -1.23166       -1.51007
H          6.17110       -1.04941        0.47842
H          4.89563       -0.71340        1.65175
H          6.15862        1.40800        0.56693
H          4.36230        2.55112       -0.60735
H          2.53530        1.24874       -1.62878
