17

N          1.00096       -0.11333       -0.31144
S          2.65816       -0.04147        0.01410
O          2.74166        0.13406        1.44651
O          3.18159       -1.23692       -0.61360
C          3.26738        1.39345       -0.85212
C          2.66732        2.75228       -0.42750
C          4.07389        3.35057       -0.63784
C          4.63408        1.93647       -0.37748
H          0.53908       -0.55594        0.48791
H          0.84128       -0.64926       -1.16678
H          3.22659        1.23380       -1.93708
H          2.31949        2.80416        0.61051
H          1.88689        3.14747       -1.08358
H          4.37499        4.12158        0.07517
H          4.25186        3.71354       -1.65653
H          4.86999        1.74871        0.67727
H          5.49422        1.65153       -0.98802
