16

C          1.13430        0.03932       -0.14999
O          2.46625        0.08545        0.35060
C          3.04124       -1.12062        0.65300
C          2.52418       -2.35890        0.54745
C          3.61863       -3.22038        1.02180
N          3.52982       -4.48069        1.24432
N          4.75148       -2.50384        1.24550
C          4.45941       -1.09083        1.18322
H          0.83947        1.05850       -0.41702
H          0.44540       -0.32441        0.61938
H          1.06985       -0.57683       -1.05300
H          1.55737       -2.69194        0.22560
H          2.59158       -4.82117        1.01926
H          5.39489       -2.86938        1.93388
H          5.13945       -0.57879        0.49729
H          4.49891       -0.63175        2.17569
