20

C          0.93943        0.00665        0.20876
C          2.45601       -0.10140        0.00723
C          2.89177       -1.56771        0.01455
N          2.97876        0.60786       -1.19085
C          2.17871        0.55112       -2.42146
C          4.28736        1.08430       -1.28105
N          5.07555        0.95483       -0.18348
S          5.02021        1.77251       -2.62165
H          0.66673       -0.33345        1.21412
H          0.37917       -0.61670       -0.49572
H          0.60228        1.04284        0.10176
H          2.88866        0.37907        0.88964
H          2.48503       -2.10659       -0.84757
H          2.54680       -2.06992        0.92489
H          3.98201       -1.65932       -0.02262
H          1.18356        0.13750       -2.26242
H          2.69111       -0.07349       -3.15985
H          2.06105        1.56473       -2.81791
H          4.71924        0.82515        0.74824
H          6.00280        1.35775       -0.24736
