18

C          0.89369       -0.05540        0.48443
C          2.19641       -0.08890        0.19114
C          3.00451       -1.31883       -0.16286
C          4.00183       -0.84661       -1.19244
C          5.25917       -0.09784       -0.82853
C          4.01035        0.67130       -1.14280
C          3.05395        1.05911       -0.08711
C          3.03616        2.20930        0.59792
H          0.31390       -0.97226        0.56311
H          0.35882        0.88102        0.59989
H          2.37756       -2.12444       -0.55921
H          3.52919       -1.69121        0.72552
H          3.90975       -1.32588       -2.15591
H          6.05837       -0.07441       -1.55979
H          5.60825       -0.12519        0.19825
H          3.93756        1.20764       -2.08210
H          3.75101        2.99530        0.37862
H          2.33986        2.37659        1.41180
