16

N          1.10758       -0.05138       -0.12413
C          2.47364        0.02912       -0.02573
N          3.15242       -0.71333       -0.95322
C          3.06689        0.79694        0.92009
C          2.39981        1.66993        1.95644
O          0.97829        1.71539        1.82663
C          4.55455        0.88860        0.98998
O          5.13652        1.52289        1.86521
H          0.77279       -0.94133       -0.47216
H          0.64345        0.19282        0.75670
H          2.55434       -1.34120       -1.47856
H          3.98514       -1.18577       -0.61622
H          2.76337        2.70128        1.88505
H          2.62288        1.29590        2.96123
H          0.81118        2.17287        0.97921
H          5.12228        0.35118        0.21738
