16

N          0.99649       -0.00601        0.27043
C          2.45794        0.00980        0.02298
C          3.11463        1.04214        0.95470
O          3.88931        0.01413        1.62201
C          3.15543       -1.02379        0.92385
C          2.82635        0.03240       -1.48091
N          2.49679       -0.94269       -2.26798
O          2.96388       -0.65660       -3.55483
H          0.73118       -0.13378        1.24717
H          0.52554       -0.74851       -0.25076
H          2.46671        1.56515        1.66649
H          3.76628        1.77308        0.46557
H          2.52926       -1.59289        1.61887
H          3.83554       -1.71333        0.41336
H          3.38532        0.91120       -1.84950
H          2.65873       -1.42659       -4.07017
