16

N          1.41368        0.28709       -0.25885
C          2.64383        0.15739        0.13892
C          3.25583       -1.24204        0.32062
O          4.17696       -1.29425        1.40221
C          5.26155       -0.38628        1.18976
C          4.77943        1.00468        0.93081
C          3.69017        1.62338        1.76482
N          3.45260        1.26000        0.36344
H          0.96780       -0.62517       -0.37800
H          3.75397       -1.53114       -0.61274
H          2.46094       -1.96775        0.51747
H          5.87083       -0.74678        0.35369
H          5.88726       -0.40222        2.08817
H          5.55115        1.65486        0.54056
H          3.68945        2.69341        1.91646
H          3.14807        1.02765        2.48611
