16

N          1.11342       -0.03257        0.40098
C          2.43162       -0.00979        0.05426
O          2.73752        0.02990       -1.12880
N          3.26034       -0.04935        1.14539
C          4.63779       -0.04189        1.19184
C          5.42719        0.03784        0.11140
C          5.26342       -0.07266        2.51045
C          4.75024       -0.60482        3.62804
H          0.44889        0.02739       -0.35909
H          0.77584        0.01369        1.34725
H          2.78983       -0.03997        2.03552
H          5.03606        0.07777       -0.89952
H          6.50887        0.04835        0.19116
H          6.26158        0.36092        2.56925
H          3.79326       -1.11196        3.65750
H          5.32227       -0.58212        4.55253
