14

C          1.05441       -0.04583        0.05802
C          2.38776       -0.06022       -0.04332
N          3.10146        1.11301       -0.10495
C          4.46747        1.17036       -0.21458
S          5.27745        2.62124       -0.28733
N          5.13279       -0.02803       -0.26161
C          4.49018       -1.23858       -0.20205
C          3.15611       -1.28631       -0.09517
H          0.49445        0.88250        0.09459
H          0.47878       -0.96437        0.10631
H          2.61266        1.99857       -0.07097
H          6.14245        0.00537       -0.34340
H          5.10902       -2.12781       -0.24537
H          2.64127       -2.23949       -0.04718
