14

O          1.96930       -0.86040        0.39277
C          2.27579        0.22426       -0.07565
C          3.04919        0.31918       -1.36694
N          3.29200        1.51011       -1.80811
N          4.00672        1.68669       -2.98737
C          4.41190        0.66230       -3.66354
C          4.19275       -0.76889       -3.30833
C          3.46666       -0.96548       -2.00373
H          2.02724        1.19307        0.38750
H          4.96824        0.85473       -4.59616
H          5.17107       -1.26178       -3.28165
H          3.63829       -1.23411       -4.13169
H          4.10824       -1.50559       -1.29741
H          2.57633       -1.58474       -2.16294
