14

C          2.85914        1.20025       -0.06619
C          2.36693       -0.03986        0.05049
C          3.10775       -1.25588       -0.14875
C          4.38130       -1.43020       -0.51302
C          4.54414       -2.87442       -0.55443
N          3.49061       -3.55424       -0.24871
C          2.54137       -2.61387        0.02095
N          1.36582       -2.97982        0.36298
H          2.22033        2.06193        0.10418
H          3.89223        1.40106       -0.32846
H          1.31781       -0.16847        0.31930
H          5.13982       -0.70448       -0.73563
H          5.51646       -3.30488       -0.83435
H          1.39624       -4.00697        0.35933
