17

C          0.87768       -0.11042        0.08004
C          2.35000        0.06070        0.06665
C          3.15705        1.17592        0.07734
N          2.73246        2.45013        0.12570
C          4.50117        0.74375        0.01713
N          5.60105        1.51452       -0.01457
C          4.50039       -0.62522        0.00093
N          3.19048       -1.03422        0.03370
H          0.35909        0.85272        0.07878
H          0.56295       -0.66253        0.97100
H          0.55061       -0.66723       -0.80432
H          1.76239        2.67814       -0.05394
H          3.37243        3.19569       -0.12326
H          5.53489        2.49184        0.24229
H          6.51665        1.11143        0.14894
H          5.30319       -1.34736       -0.03205
H          2.88547       -1.99812        0.02854
