19

C          0.97198        0.16149        0.13792
C          2.48525        0.08318        0.09372
N          3.14463        1.11852        0.93554
C          4.18005        0.12271        1.29687
C          3.16578       -0.99461        0.97692
C          3.71100       -2.21841        0.26201
C          2.58015       -3.20171        0.00763
C          1.61011       -4.04519       -0.21058
H          0.61427        1.05154       -0.39035
H          0.58979        0.19626        1.16366
H          0.53140       -0.71265       -0.35263
H          2.85128        0.10081       -0.94233
H          2.58104        1.41421        1.73403
H          4.51502        0.16894        2.33686
H          5.05954        0.15638        0.64268
H          2.58168       -1.26383        1.87097
H          4.46376       -2.71452        0.88506
H          4.18769       -1.95513       -0.68858
H          0.81787       -4.73518       -0.38976
