14

C          1.08718        0.36922        0.47620
C          2.25076        0.06911       -0.11672
C          2.91765        0.91590       -1.11327
C          2.83470        2.30531       -1.10624
C          3.51826        3.01141       -2.07795
N          4.27232        2.41421       -3.02247
N          4.37944        1.06166       -3.02762
C          3.71965        0.34294       -2.09146
H          0.64720       -0.31216        1.19808
H          0.53133        1.27538        0.25701
H          2.74115       -0.87120        0.12768
H          2.25970        2.84071       -0.35972
H          3.48558        4.09372       -2.12562
H          3.85923       -0.72975       -2.16762
