13

C          1.05846       -0.04603        0.08180
C          2.53454       -0.06552        0.07799
N          3.27969        1.04771        0.07387
N          4.52164        0.53210        0.07095
C          4.49581       -0.83031        0.07326
N          3.24706       -1.23787        0.07788
C          5.63396       -1.67600        0.07063
C          6.59426       -2.39668        0.06814
H          0.66917        0.97688        0.08383
H          0.67530       -0.55846        0.96951
H          0.67093       -0.55663       -0.80506
H          5.32305        1.15071        0.06725
H          7.43517       -3.05050        0.06581
