16

C          3.53325       -0.05133       -1.10233
C          2.55159        0.05396        0.05408
C          3.03094       -0.70898        1.26045
C          3.82220       -0.09707        2.21489
C          4.22148       -0.88474        3.27152
N          3.88692       -2.18028        3.40199
C          3.12306       -2.67955        2.41939
N          2.67548       -2.00866        1.34593
H          3.15496        0.49657       -1.97104
H          3.68639       -1.09459       -1.39882
H          4.50897        0.36823       -0.83482
H          1.57761       -0.34271       -0.25682
H          2.39022        1.10637        0.31580
H          4.11609        0.94138        2.14419
H          4.84206       -0.48319        4.06720
H          2.84040       -3.72342        2.49821
