22

C          0.82522       -0.11199        0.08767
C          2.36112       -0.10778        0.15877
C          2.92086       -1.41243       -0.44025
C          3.69619       -1.30287       -1.70744
C          4.05761       -0.14728       -2.26448
C          3.74117        1.19226       -1.69668
C          2.91009        1.23622       -0.39808
C          3.68861        1.98306        0.69726
H          0.41558       -1.01096        0.56088
H          0.47463       -0.07664       -0.94766
H          0.41212        0.75108        0.62330
H          2.58480       -0.15335        1.23457
H          2.11034       -2.13116       -0.60456
H          3.58097       -1.88106        0.30316
H          3.98811       -2.23660       -2.18607
H          4.63383       -0.16150       -3.18822
H          3.19647        1.75029       -2.46977
H          4.68803        1.72891       -1.56278
H          2.05302        1.88969       -0.61766
H          4.58629        1.43123        0.99066
H          3.06371        2.12585        1.58539
H          3.99134        2.97617        0.34870
