15

C          1.05468       -0.05393        0.06511
C          2.53564       -0.02533        0.06482
N          3.28199        1.06034        0.06372
N          4.59413        0.67529        0.06339
C          4.61918       -0.63558        0.06431
N          3.34440       -1.15386        0.06543
C          2.94942       -2.49461        0.06683
C          3.75105       -3.56907        0.06701
H          0.65235        0.96410        0.06400
H          0.67527       -0.56363        0.95601
H          0.67500       -0.56563       -0.82454
H          5.50982       -1.24533        0.06430
H          1.87480       -2.65483        0.06788
H          4.83419       -3.50411        0.06596
H          3.32532       -4.56927        0.06820
