19

C          0.93459        0.01980       -0.32189
C          2.39084       -0.10157        0.05386
C          2.62607       -0.12936        1.55669
N          4.03517       -0.24132        1.94072
N          4.27472       -0.20652        3.27539
C          5.52350       -0.32550        3.58222
C          3.31098       -0.85147       -0.89189
N          3.37164        0.60536       -0.79911
H          0.32768       -0.67267        0.27149
H          0.75751       -0.20939       -1.37832
H          0.57656        1.03665       -0.12925
H          2.07690       -0.97702        1.98248
H          2.21013        0.78932        1.98773
H          4.54484        0.48406        1.42145
H          5.81965       -0.31666        4.64292
H          6.32991       -0.44796        2.83990
H          2.91095       -1.26202       -1.81116
H          4.16093       -1.39049       -0.49124
H          2.90778        1.03909       -1.59972
