16

C          1.07982        0.14988        0.07536
C          2.56437        0.07533        0.07200
N          3.36209        1.12623        0.06562
C          4.63004        0.62833        0.06323
C          4.61021       -0.74234        0.06808
N          3.28178       -1.12062        0.07376
C          2.76950       -2.42357        0.07995
C          3.47452       -3.56371        0.08053
H          0.75281        1.19514        0.07326
H          0.66699       -0.32785        0.96885
H          0.66278       -0.33268       -0.81361
H          5.49340        1.28060        0.05789
H          5.41364       -1.46259        0.06790
H          1.68544       -2.48946        0.08534
H          4.55933       -3.58943        0.07564
H          2.96600       -4.52414        0.08573
