18

C          1.07429        0.05376       -0.10048
C          2.38136        0.05055        0.18201
C          3.07912       -1.15622        0.66106
C          4.29491       -1.06366        1.25220
C          4.94026        0.29032        1.56299
C          3.90110        1.36432        1.44580
C          3.54998        2.51819        0.56429
C          3.31321        1.17597        0.00964
H          0.45587       -0.82513        0.04246
H          0.58895        0.95314       -0.46417
H          2.60821       -2.12258        0.50771
H          4.82150       -1.95871        1.56780
H          5.79175        0.46742        0.89731
H          5.31647        0.27070        2.59211
H          3.24242        1.30123        2.31391
H          4.36882        3.10400        0.16006
H          2.68414        3.11875        0.82235
H          3.97776        0.98361       -0.83579
