20

C          0.92605        0.03380       -0.06718
C          2.43484        0.01202       -0.09162
C          3.10873        1.17303       -0.11155
C          4.58974        1.32662       -0.14136
C          5.40631        0.04276       -0.12688
C          4.64505       -1.28262       -0.14001
C          3.13480       -1.26654       -0.09684
C          2.49750       -2.45223       -0.07058
H          0.52758        1.05475       -0.06444
H          0.54397       -0.46065        0.83255
H          0.51643       -0.46673       -0.95123
H          2.55396        2.10948       -0.10849
H          4.88754        1.94370        0.71583
H          4.85528        1.90735       -1.03357
H          6.06647        0.05822        0.75093
H          6.09532        0.05741       -0.98260
H          5.00711       -1.87809        0.71043
H          4.95490       -1.83508       -1.03830
H          3.05492       -3.38475       -0.07850
H          1.41828       -2.54793       -0.04301
