15

C          1.16863       -0.04066       -0.03612
C          2.66267       -0.05389       -0.03195
N          3.36799       -1.14207       -0.10379
C          4.65887       -0.71485       -0.07433
N          5.62235       -1.55018       -0.11437
C          4.71707        0.74236        0.00142
C          3.46285        1.18820        0.03844
N          2.94696        2.44990        0.11494
H          0.78270       -1.06399       -0.02906
H          0.80927        0.46624       -0.93597
H          0.79925        0.48391        0.84885
H          5.17539       -2.47414       -0.15820
H          5.63659        1.29687        0.02934
H          3.60589        3.18085       -0.14365
H          2.03892        2.56521       -0.32759
