22

C          0.63581        0.33068        0.06148
C          2.15271        0.29990        0.12755
C          2.96180       -0.84877       -0.59045
C          2.56841       -0.77146       -2.06755
C          2.65167        0.74576       -2.26847
C          3.05114        1.15871       -0.85339
C          4.17675        0.14239       -0.40795
C          5.45046       -0.05576       -1.21140
H          0.21800       -0.50131        0.63806
H          0.24670        0.25787       -0.95625
H          0.25620        1.25998        0.49596
H          2.42066        0.42690        1.18858
H          3.01370       -1.82249       -0.10400
H          1.56119       -1.15663       -2.25166
H          3.26167       -1.31243       -2.71772
H          1.69338        1.17644       -2.57416
H          3.40662        1.02402       -3.01025
H          3.19465        2.21539       -0.62832
H          4.49093        0.28495        0.63841
H          6.02031        0.87718       -1.26424
H          6.08592       -0.80677       -0.72866
H          5.26913       -0.39417       -2.23450
