21

C          1.46046        0.40157        0.16217
C          2.92703        0.26974       -0.16714
N          3.19597        0.19076       -1.58096
C          3.80989        1.34465       -0.87290
C          5.32719        1.32101       -1.08396
N          6.00875        0.18376       -0.47839
C          3.21692        2.74109       -0.89774
N          2.49841        2.98744       -2.13742
H          1.16615       -0.36578        0.87584
H          0.82972        0.26104       -0.72578
H          1.20093        1.37031        0.59069
H          3.42324       -0.39899        0.52202
H          2.45571        0.59598       -2.15119
H          5.51251        1.29948       -2.16482
H          5.78600        2.24777       -0.72246
H          5.64924       -0.65091       -0.93427
H          5.73381        0.11340        0.50113
H          3.99225        3.49916       -0.76587
H          2.53767        2.89019       -0.04998
H          3.17698        3.05201       -2.89457
H          2.06919        3.91229       -2.07957
