20

C          0.83996        0.09814        0.28021
C          1.89975       -0.94020        0.15883
C          3.37869       -0.66191        0.04135
C          2.54063       -1.19967       -1.16606
C          3.02093       -0.19536       -2.24741
C          3.17184        1.27783       -1.64498
C          4.15461        0.45911       -0.70600
C          4.61273       -0.13696       -2.12674
H          0.10242       -0.20730        1.03246
H          0.30011        0.21794       -0.66590
H          1.23743        1.06425        0.59428
H          1.62647       -1.81455        0.74312
H          4.08252       -1.34294        0.50476
H          2.72251       -2.21744       -1.48750
H          2.58245       -0.29325       -3.23993
H          3.62935        2.03467       -2.29326
H          2.29901        1.72946       -1.17500
H          4.90200        1.01005       -0.13337
H          5.14164        0.53386       -2.81399
H          5.12213       -1.10433       -2.10475
