22

C          1.79438       -0.53093       -0.61040
C          3.21607       -0.00126       -0.49976
C          4.11684       -0.31262       -1.72645
C          5.23566       -0.75208       -0.76951
C          4.17669       -0.86352        0.36001
C          4.38639       -0.06213        1.63394
C          4.34494        1.38838        1.17774
C          3.27228        1.41919        0.09249
H          1.77916       -1.57472       -0.94298
H          1.21215        0.05710       -1.32627
H          1.28195       -0.49159        0.35866
H          4.35671        0.53587       -2.37405
H          3.75256       -1.13258       -2.35765
H          5.73052       -1.68915       -1.03950
H          6.00794        0.00991       -0.61997
H          3.85461       -1.89763        0.52995
H          5.32753       -0.31024        2.13205
H          3.56698       -0.25895        2.33563
H          5.31051        1.68768        0.75886
H          4.11761        2.07593        1.99918
H          3.49846        2.17251       -0.67042
H          2.31094        1.69276        0.54432
