18

C          1.55935       -1.17803        0.34945
C          2.24190       -0.09594       -0.05327
C          3.04001        0.78281        0.88023
C          2.54005        2.23097        0.87591
C          3.49344        3.18349        0.17109
N          4.86294        2.86411        0.55089
N          5.34169        1.62248        0.31664
C          4.49613        0.64615        0.48086
H          1.00830       -1.78686       -0.35860
H          1.53405       -1.48545        1.39455
H          2.23871        0.16604       -1.10861
H          2.96134        0.38749        1.90189
H          2.42386        2.55685        1.91750
H          1.54269        2.31536        0.42476
H          3.26545        4.21197        0.47279
H          3.37596        3.12790       -0.91618
H          5.50711        3.55959        0.16648
H          4.88425       -0.37977        0.36170
