18

C          0.91737       -0.09010       -0.06755
C          2.39157        0.09530       -0.07154
C          3.18388        1.23735       -0.08044
C          2.73537        2.65532       -0.08628
C          4.52834        0.78529       -0.08530
N          5.62897        1.54414       -0.09776
C          4.53498       -0.58228       -0.07672
N          3.23090       -0.99583       -0.06873
H          0.38531        0.86484       -0.06664
H          0.60534       -0.64840        0.82111
H          0.60119       -0.64893       -0.95448
H          1.64583        2.74495       -0.09187
H          3.11758        3.17090       -0.97348
H          3.10878        3.17483        0.80235
H          5.59369        2.55492       -0.03633
H          6.56000        1.14826       -0.03434
H          5.34279       -1.29964       -0.07765
H          2.92935       -1.96106       -0.06340
