18

C          0.96374        0.11712       -0.07591
C          2.48809       -0.02698       -0.13422
N          3.07320        1.19164        0.43041
C          3.67127        1.09988        1.55318
N          3.87496       -0.01090        2.29947
C          3.82183       -1.31392        1.69641
C          2.95990       -1.32998        0.47144
C          2.64770       -2.50975       -0.10201
H          0.64627        1.07266       -0.50844
H          0.59781        0.08357        0.95646
H          0.46374       -0.67945       -0.63831
H          2.78163       -0.03456       -1.19291
H          4.08890        2.00770        2.02038
H          4.56308        0.07366        3.03937
H          3.43658       -2.02082        2.43997
H          4.83801       -1.62628        1.43109
H          2.98772       -3.45433        0.30727
H          2.04328       -2.55749       -1.00579
