18

C          1.16178        0.23228        0.08950
C          2.66236        0.30111        0.02568
C          3.41176       -0.81867       -0.05281
C          4.91234       -0.81493       -0.19729
C          5.48169        0.54703       -0.48840
C          4.75335        1.66911       -0.39896
C          3.35422        1.60087        0.01419
C          2.73916        2.74539        0.35530
H          0.79750       -0.79548       -0.01437
H          0.71656        0.81328       -0.72478
H          0.79012        0.61576        1.04433
H          2.93758       -1.79572       -0.03412
H          5.18248       -1.48842       -1.01753
H          5.36681       -1.20985        0.71877
H          6.52468        0.60066       -0.78631
H          5.19736        2.63487       -0.62543
H          3.26186        3.69740        0.34757
H          1.70862        2.77894        0.68924
