19

C          1.00179        0.00425        0.26124
C          2.49628       -0.04286        0.05105
N          2.85112       -0.08419       -1.38694
C          3.40428        0.97762        0.79239
N          4.43390       -0.09566        0.91951
C          3.33094       -1.09822        0.82636
N          5.16374       -0.10440        2.05578
C          6.35147       -0.56098        1.83485
H          0.55880        0.87716       -0.23176
H          0.74855        0.06325        1.32490
H          0.51786       -0.89208       -0.14377
H          2.57185        0.74503       -1.90662
H          2.47809       -0.88662       -1.88677
H          2.99733        1.32227        1.75324
H          3.72480        1.85776        0.22537
H          2.90063       -1.37770        1.79839
H          3.58978       -2.01599        0.29065
H          7.07301       -0.62820        2.66485
H          6.70369       -0.90005        0.84378
