17

C          1.05705       -0.07898        0.02254
C          2.36090       -0.07898        0.02254
C          3.88090       -0.07898        0.02254
C          4.46040       -1.21898        0.86233
C          5.24367       -0.38478        1.85870
C          5.88891        0.71369        0.98187
N          4.43078        1.11405        0.73219
C          4.27507        0.76406        2.21891
H         -0.00825       -0.06948        0.02292
H          4.24054       -0.11462       -1.01256
H          5.12594       -1.86068        0.27512
H          3.70569       -1.83892        1.35797
H          5.82734       -0.86102        2.64356
H          6.44908        0.38459        0.09937
H          6.48713        1.46988        1.50653
H          3.26902        0.48666        2.55034
H          4.65835        1.52870        2.90753
