20

C          0.71397        0.00564        0.10219
C          2.21999        0.02074        0.18109
N          2.75533        0.35391        1.51780
C          3.03995       -0.95740       -0.63596
C          2.54523       -1.71177       -1.82610
N          2.74061       -0.76486       -2.92774
C          2.55625        0.59329       -2.40796
C          3.04580        0.49039       -1.00057
H          0.30931       -0.73638        0.79926
H          0.32769       -0.23430       -0.89151
H          0.31363        0.98658        0.38115
H          2.43445       -0.32015        2.21140
H          2.41838        1.26577        1.82369
H          3.94705       -1.37462       -0.21856
H          1.49234       -1.99201       -1.72591
H          3.12950       -2.62007       -2.00022
H          2.09759       -0.95449       -3.69147
H          1.50640        0.89759       -2.45635
H          3.14907        1.30442       -2.99053
H          3.95589        1.05068       -0.82811
