22

C          0.78558        0.06375        0.08675
C          2.29523        0.06943        0.02618
N          2.80231        0.12597       -1.35087
C          3.05302        1.14239        0.85040
C          4.12275        0.07961        1.18232
C          3.07270       -1.01514        0.84667
C          3.62861       -2.28404        0.21083
N          2.54850       -3.21106       -0.12682
H          0.36332        0.94333       -0.41238
H          0.43071        0.07275        1.12303
H          0.37219       -0.82909       -0.39496
H          2.43952        0.91300       -1.88820
H          2.55586       -0.70849       -1.88703
H          2.50587        1.48333        1.73850
H          3.41492        2.02729        0.31755
H          4.48271        0.08321        2.21498
H          4.98864        0.10291        0.51051
H          2.51749       -1.28837        1.76009
H          4.31180       -2.77927        0.91047
H          4.20569       -2.06007       -0.69195
H          2.09257       -3.51877        0.73161
H          2.95317       -4.05015       -0.54088
