17

C          1.05653       -0.18321       -0.14148
C          2.37477       -0.01254        0.01627
C          2.88266        0.76170        1.18350
C          4.45627        0.95576        1.33874
N          4.02039        2.15791        2.20600
C          3.08503        2.32937        0.98986
C          4.05343        2.55699       -0.11508
C          4.98515        1.62837        0.12367
H          0.66570       -0.74791       -0.98229
H          0.33754        0.22762        0.56142
H          3.07792       -0.43728       -0.69396
H          2.37317        0.46226        2.11275
H          5.06202        0.19589        1.83116
H          4.72727        2.88710        2.28611
H          2.24650        3.01410        1.11023
H          4.00530        3.29046       -0.90292
H          5.89141        1.41322       -0.41647
