20

C          2.68412        1.46429        0.41226
C          2.59121       -0.00908        0.04596
C          3.10539       -0.88441        1.14858
C          3.14229       -2.37834        0.96870
C          4.42689       -1.59769        1.00759
N          5.32409       -1.69592        2.14870
C          6.20194       -0.69881        2.45097
N          6.32208        0.46137        1.91153
H          2.31060        2.08575       -0.40718
H          3.71721        1.75670        0.62253
H          2.08734        1.68321        1.30436
H          3.14483       -0.18592       -0.88370
H          1.54304       -0.26085       -0.14952
H          2.81618       -0.52658        2.13127
H          2.82704       -2.79204        0.01780
H          2.88199       -2.99207        1.82336
H          4.96132       -1.52411        0.06255
H          5.46560       -2.59358        2.60029
H          6.87397       -0.97280        3.28204
H          5.62011        0.55475        1.17325
