18

C          1.03317       -0.02397        0.02068
C          2.55694       -0.02305       -0.12950
C          3.03144       -1.21173       -0.94653
C          3.12721       -2.48493       -0.55364
C          3.44167       -0.69558       -2.23233
C          3.44112        0.64577       -2.23513
C          3.02374        1.16543       -0.94649
C          3.12258        2.44151       -0.55973
H          0.69777       -0.89727        0.59102
H          0.52509       -0.04827       -0.95120
H          0.68950        0.87130        0.54969
H          3.03793       -0.01987        0.85591
H          2.83824       -2.78237        0.44964
H          3.51996       -3.25469       -1.20965
H          3.74297       -1.31634       -3.06400
H          3.74364        1.26194       -3.06859
H          3.51410        3.20870       -1.21987
H          2.83292        2.74180        0.44200
