18

C          0.99097        0.16293       -0.19523
C          2.48426        0.02544        0.05977
N          2.71922       -1.15348        0.88387
C          3.37693       -0.78593        2.02129
N          3.81844       -1.59971        2.90727
C          3.56145        0.66500        2.10188
C          3.05761        1.11593        0.94140
C          3.07768        2.53315        0.48839
H          0.62664       -0.67996       -0.79278
H          0.76019        1.08518       -0.73661
H          0.41991        0.16718        0.74145
H          3.04420       -0.04347       -0.87938
H          3.07679       -1.97195        0.40797
H          3.53970       -2.54752        2.64139
H          4.04528        1.18397        2.90718
H          3.54284        3.18697        1.23366
H          2.06239        2.90079        0.31037
H          3.64878        2.62567       -0.44117
