19

C          0.92139        0.05516       -0.02097
C          2.44265        0.03690        0.08246
N          2.88559       -1.20077        0.76308
C          3.22168       -0.81439        2.15077
C          4.44727       -1.52911        2.63711
C          4.46748       -2.35011        3.69712
C          3.40914        0.66381        2.09483
C          2.96047        1.14479        0.93313
H          0.56461       -0.77343       -0.64308
H          0.57170        0.99006       -0.47337
H          0.44224       -0.03618        0.96161
H          2.88349        0.08472       -0.91908
H          3.74511       -1.50314        0.31064
H          2.36309       -1.03804        2.79613
H          5.37477       -1.35641        2.09569
H          3.56846       -2.55772        4.27069
H          5.38514       -2.83877        4.00738
H          3.79748        1.25815        2.90933
H          2.94145        2.18804        0.65258
