20

C          0.92356        0.07245        0.01428
C          2.46732        0.04664        0.04360
C          2.99268       -1.16527       -0.77523
C          3.24046       -0.59121       -2.13535
C          3.25896        0.74419       -2.11094
C          3.02209        1.27413       -0.73205
C          2.90553        0.07235        1.49818
C          3.18435       -0.99505        2.25952
H          0.53626        0.08688       -1.01066
H          0.53123        0.95849        0.52764
H          0.50477       -0.81057        0.51169
H          2.26219       -1.97963       -0.81967
H          3.93724       -1.56448       -0.38864
H          3.42399       -1.19425       -3.01341
H          3.45736        1.37438       -2.96750
H          2.30672        2.10360       -0.75191
H          3.96722        1.64469       -0.31816
H          2.97148        1.05629        1.96224
H          3.10862       -2.01040        1.88408
H          3.47901       -0.87219        3.29752
