19

C          0.94563        0.31643        0.39798
C          2.21698        0.04788        0.07339
C          3.37679        1.01925       -0.05149
C          3.85072        1.08399       -1.50721
C          3.14589        2.28964       -2.04873
C          3.70334        3.66342       -1.82735
N          2.64751        3.15598       -0.95489
C          3.12199        2.50390        0.28547
H          0.20840       -0.48134        0.43594
H          0.59344        1.32014        0.60880
H          2.46867       -0.99169       -0.13827
H          4.17976        0.63235        0.58868
H          3.61493        0.18352       -2.08322
H          4.93635        1.23335       -1.54970
H          2.43728        2.09448       -2.84045
H          3.40660        4.44290       -2.51966
H          4.70225        3.77733       -1.42486
H          2.38994        2.63440        1.08836
H          4.04761        2.97543        0.63664
