20

C          1.52117       -0.41269       -0.51849
C          2.31489        0.33375        0.55515
C          3.03296        1.54279        0.03328
C          2.29907        2.73987       -0.51570
N          2.96884        2.79814        0.77834
C          2.36467       -0.86706       -1.67167
C          3.47970       -1.86652       -1.49835
N          2.23833       -2.23496       -2.17047
H          0.72408        0.23363       -0.90579
H          1.02173       -1.26667       -0.04425
H          1.62514        0.61010        1.36214
H          3.05596       -0.34047        1.00163
H          3.99855        1.30220       -0.39865
H          1.21722        2.75193       -0.51017
H          2.77017        3.30085       -1.31474
H          2.28747        2.75559        1.53951
H          2.48608       -0.10099       -2.43017
H          3.65878       -2.30591       -0.52574
H          4.35144       -1.76504       -2.13381
H          1.65470       -2.81171       -1.56118
