21

C          1.94501       -1.53986       -0.05693
C          2.47011       -0.11119        0.05214
C          3.07326        0.20103        1.43475
C          4.27798       -0.62354        1.78199
C          5.16817        0.11322        2.44769
C          4.66835        1.50553        2.60259
N          3.50535        1.61191        1.68521
C          3.90359        2.33621        0.47625
H          1.42015       -1.67682       -1.00781
H          1.24424       -1.76579        0.75286
H          2.75972       -2.26940       -0.02288
H          1.63153        0.57090       -0.13631
H          3.20425        0.04495       -0.74721
H          2.30033       -0.02406        2.18311
H          4.37864       -1.68059        1.58599
H          6.09855       -0.24780        2.85894
H          5.45406        2.23768        2.38742
H          4.33507        1.66514        3.63441
H          4.26445        3.33854        0.73694
H          3.04662        2.49396       -0.18643
H          4.69697        1.82775       -0.08368
