19

C          1.10412        0.06155       -0.04911
C          2.60119        0.00508        0.16545
N          3.23097        1.12407        0.37640
N          4.56211        1.02973        0.59914
C          5.33898        0.05704       -0.15823
C          4.79294       -1.33158        0.12218
C          3.26442       -1.37110        0.14122
N          2.77890       -2.13977        1.30901
H          0.76612        1.09648       -0.14682
H          0.59746       -0.39546        0.80592
H          0.84143       -0.48788       -0.95698
H          4.98682        1.95786        0.51690
H          6.38682        0.10301        0.16029
H          5.30806        0.28914       -1.22645
H          5.20610       -1.69062        1.07339
H          5.16609       -2.02970       -0.63957
H          2.90886       -1.88178       -0.76335
H          3.05824       -1.63206        2.14904
H          3.26362       -3.03573        1.35022
