18

C          2.84759       -0.15156       -1.21370
C          2.28247        0.04262       -0.01423
C          3.03814        0.28011        1.25201
C          2.71005        1.61796        1.93638
C          2.94626        1.34258        3.42615
C          2.67420       -0.13850        3.49275
N          2.59869       -0.81114        4.58351
N          2.58891       -0.66826        2.24308
H          2.23292       -0.32986       -2.09120
H          3.92443       -0.14200       -1.35070
H          1.19698        0.01459        0.06281
H          4.12163        0.18300        1.11049
H          1.65795        1.89365        1.78299
H          3.32653        2.44171        1.56353
H          2.27671        1.91139        4.07464
H          3.98798        1.52434        3.70781
H          2.70233       -0.18909        5.39128
H          2.81488       -1.65040        2.14466
