15

C          1.02977        0.06987        0.06505
C          2.33363        0.06987        0.06505
C          3.85363        0.06987        0.06505
C          4.57805        1.19340        0.11685
C          5.96272        0.92967        0.48840
C          6.83086        0.02788       -0.33610
N          6.06854       -0.53544        0.77381
C          4.73403       -1.10092        0.39064
H         -0.03538        0.07096        0.06622
H          4.17452        2.19358        0.03729
H          6.41642        1.57274        1.23411
H          7.90212        0.08700       -0.18035
H          6.53567       -0.22637       -1.34575
H          4.33376       -1.65890        1.24364
H          4.82913       -1.78295       -0.46147
