17

C          0.97738        0.00761       -0.16320
C          2.48534        0.05602       -0.02437
N          3.08914       -1.23163       -0.57047
C          3.89288       -0.84670       -1.53424
C          4.71830       -1.80454       -2.32670
N          3.93490        0.49785       -1.74404
C          3.11611        1.15371       -0.89032
N          2.88500        2.41001       -0.77007
H          0.56437       -0.84757        0.38154
H          0.67430       -0.08607       -1.21191
H          0.52129        0.92080        0.23308
H          2.79544        0.18288        1.01772
H          4.37620       -2.82963       -2.16312
H          5.76319       -1.72020       -2.01560
H          4.64307       -1.56398       -3.39058
H          4.51897        0.94466       -2.42986
H          3.42519        2.93894       -1.45848
