21

C          0.95805       -0.03966        0.08467
C          2.44519        0.06590       -0.01686
C          3.11343        0.91736       -0.81726
C          2.47574        1.92129       -1.75072
C          3.01226        3.33240       -1.46567
N          4.48016        3.40369       -1.53031
C          5.09077        2.44487       -0.59636
C          4.62422        0.99905       -0.83332
H          0.68944       -0.80006        0.82455
H          0.51952       -0.33717       -0.87284
H          0.51909        0.90800        0.41178
H          3.00798       -0.60685        0.62779
H          1.38452        1.92953       -1.66632
H          2.71024        1.63901       -2.78526
H          2.66890        3.67136       -0.47979
H          2.59674        4.02688       -2.20413
H          4.77805        4.34614       -1.28112
H          4.86792        2.74461        0.43572
H          6.17922        2.49083       -0.71316
H          5.06930        0.34751       -0.07245
H          4.98760        0.64807       -1.80768
