16

C          1.04307       -0.11881       -0.13209
C          2.38155        0.02602       -0.11654
C          3.27739       -1.16533        0.14288
N          4.49513       -1.16837       -0.67730
N          5.56200       -0.47178       -0.21326
C          5.40581        0.80618       -0.07539
C          4.24932        1.68757       -0.37346
C          2.95649        1.33691       -0.37255
H          0.57757       -1.08268        0.05085
H          0.37155        0.71297       -0.32051
H          2.72811       -2.08766       -0.08538
H          3.53726       -1.21569        1.20792
H          4.78014       -2.14015       -0.81170
H          6.28524        1.35968        0.29851
H          4.52324        2.71620       -0.58550
H          2.24250        2.12677       -0.60562
