21

C          0.94215       -0.11780        0.06913
C          2.43546       -0.14685        0.10806
C          3.17049       -1.04614        0.78544
C          2.63568       -2.13063        1.66677
C          3.68198       -2.14162        2.76640
N          4.96985       -1.88548        2.10714
C          4.67426       -1.07704        0.90161
C          5.35808        0.28150        1.01463
H          0.60466        0.64998       -0.63486
H          0.53091        0.13002        1.05243
H          0.53715       -1.07701       -0.26732
H          2.93607        0.63028       -0.46505
H          2.62733       -3.08304        1.12409
H          1.63749       -1.93247        2.06579
H          3.69645       -3.09452        3.30541
H          3.48549       -1.34828        3.49809
H          5.35417       -2.77528        1.79253
H          5.08135       -1.60806        0.03163
H          4.95486        0.87373        1.84356
H          5.23427        0.86095        0.09320
H          6.43550        0.16251        1.17690
