19

C          0.95770       -0.01458       -0.02594
C          2.48191       -0.10667       -0.02416
N          3.05403        1.02298        0.74369
C          4.37674        0.54204        1.17170
C          4.23656       -0.94131        1.35034
C          5.03808       -1.69872        2.10847
C          3.06119       -1.35538        0.60618
C          2.56159       -2.59675        0.52593
H          0.62765        0.94892       -0.43067
H          0.54285       -0.11608        0.98349
H          0.51645       -0.79747       -0.65168
H          2.84422       -0.03165       -1.05786
H          2.48898        1.14831        1.58318
H          4.68565        1.04774        2.09253
H          5.11357        0.76212        0.39021
H          5.88090       -1.26172        2.63501
H          4.88889       -2.76574        2.22681
H          3.02751       -3.44129        1.02111
H          1.66765       -2.80986       -0.05051
