20

C          1.52125       -1.11088        1.14646
C          2.87064       -0.68181        0.66018
C          2.88992        0.45813       -0.30365
C          3.27383       -0.99974       -0.75350
C          4.57499       -0.64693       -1.52688
C          5.44490        0.39195       -0.69849
C          4.09512        1.21561       -0.89798
C          4.25826        0.67040       -2.38927
H          1.60286       -1.91588        1.88064
H          0.89393       -1.46867        0.32048
H          0.99959       -0.26766        1.61259
H          3.61469       -0.70042        1.44490
H          1.96605        0.87220       -0.68259
H          2.59715       -1.53809       -1.40166
H          5.09478       -1.46417       -2.02875
H          6.34007        0.78865       -1.19495
H          5.70738        0.10426        0.32205
H          4.13228        2.29415       -0.74128
H          5.06251        1.09653       -2.99549
H          3.33503        0.64138       -2.97782
