14

C          1.12072       -0.02226        0.05727
C          2.60057        0.04235        0.06031
N          3.34686        1.12852        0.06696
C          4.63887        0.67960        0.06810
C          4.69252       -0.69106        0.06180
N          3.38366       -1.08745        0.05674
C          5.73296        1.58588        0.07589
C          6.66171        2.34694        0.08298
H          0.69032        0.98378        0.05516
H          0.75671       -0.54718        0.94589
H          0.76006       -0.54943       -0.83139
H          5.51376       -1.39239        0.06078
H          3.04470       -2.03959        0.05166
H          7.48178        3.02555        0.08961
