21

C          1.02482        0.15840       -0.14347
C          2.53158       -0.03859       -0.10079
N          3.05512       -0.48286       -1.41717
C          3.86335       -1.68683       -1.11027
C          2.88710       -2.83578       -0.80664
C          2.37075       -2.47971        0.59521
C          3.04809       -1.12425        0.86054
C          4.43295       -1.36469        0.26384
H          0.77017        1.01790       -0.77361
H          0.63210        0.34737        0.86055
H          0.50014       -0.70867       -0.55744
H          3.00358        0.91847        0.15896
H          3.67479        0.24424       -1.77713
H          4.59247       -1.92079       -1.88892
H          3.40759       -3.79971       -0.78472
H          2.07570       -2.90468       -1.53948
H          2.71343       -3.22730        1.32053
H          1.27967       -2.44584        0.64684
H          3.04328       -0.82576        1.91105
H          4.96331       -2.20606        0.72266
H          5.07560       -0.47730        0.27624
