17

C          1.04451        0.03729       -0.06064
C          2.56311        0.02783        0.06106
C          3.00242        1.27342        0.80973
N          3.37598        1.31249        2.05436
N          3.43301        0.08031        2.64565
C          3.76552        0.07673        4.06032
C          3.33332       -1.09244        1.93412
N          2.97037       -1.23523        0.70625
H          0.69228        0.95454       -0.54513
H          0.57082       -0.01727        0.92657
H          0.69377       -0.81952       -0.64392
H          3.01374        0.07401       -0.93647
H          2.94871        2.22437        0.25440
H          3.80847        1.09176        4.46848
H          4.73728       -0.39936        4.22450
H          3.00441       -0.47670        4.62017
H          3.61414       -1.98224        2.52185
