20

C          1.63821        1.34594       -0.38570
C          2.13109       -0.03974       -0.00177
C          2.98267       -0.71140       -1.06466
C          4.24877        0.02341       -1.43629
C          3.02633       -2.22101       -0.99613
N          2.44762       -1.55135       -2.15529
N          1.11228       -1.64540       -2.06564
C          0.58964       -1.78078       -3.23774
H          1.08129        1.78613        0.44845
H          0.97595        1.30521       -1.25510
H          2.46728        2.02047       -0.61919
H          1.26710       -0.65559        0.27598
H          2.73695        0.04646        0.90961
H          4.79424        0.33848       -0.54212
H          4.01096        0.91144       -2.03205
H          4.92179       -0.59888       -2.03784
H          2.35608       -2.74376       -0.32198
H          3.97166       -2.72217       -1.15877
H         -0.50201       -1.87582       -3.34614
H          1.18191       -1.81242       -4.17146
