21

C          1.13114       -0.01332       -0.12477
C          2.64953       -0.14603        0.00020
N          3.04001       -1.47637       -0.48656
C          4.49808       -1.63282       -0.49101
C          5.15150       -0.73762       -1.54728
C          4.65000        0.67347       -1.49960
C          4.66990        1.48527       -0.23401
C          3.35581        0.94836       -0.76733
H          0.61781       -0.79294        0.44936
H          0.80448       -0.08640       -1.16878
H          0.79659        0.95792        0.25621
H          2.90042       -0.06631        1.06556
H          2.69338       -1.59063       -1.43858
H          4.74205       -2.67868       -0.70767
H          4.90345       -1.42163        0.50613
H          4.93183       -1.14427       -2.54261
H          6.24052       -0.75132       -1.42954
H          4.84213        1.20239       -2.42614
H          4.84668        2.55241       -0.31753
H          5.09169        1.04546        0.66210
H          2.67738        1.66907       -1.21029
