19

C          1.07663        0.59957       -0.03417
C          2.27774        0.01448        0.05836
C          3.03182       -0.52566       -1.12382
C          3.33928       -2.02618       -1.04730
C          4.86382       -1.95184       -1.11139
C          5.20704       -0.89376       -2.20097
C          4.47952       -0.01158       -1.13956
N          5.28235       -0.85448       -0.14052
H          0.57210        0.97417        0.85177
H          0.56690        0.71611       -0.98555
H          2.73342       -0.07252        1.04239
H          2.52302       -0.27851       -2.06384
H          2.92563       -2.56698       -1.90504
H          2.98822       -2.50337       -0.12624
H          5.44446       -2.87384       -1.08100
H          4.72322       -1.00665       -3.17539
H          6.27334       -0.68642       -2.35370
H          4.67941        1.06092       -1.14757
H          4.86518       -0.92837        0.78583
