20

C          1.06727        0.17956        0.08521
C          2.56062       -0.06341       -0.15691
C          2.90154       -1.56844       -0.05770
C          2.46544       -2.33069       -1.27884
C          2.52452       -1.74556       -2.48647
C          3.07177       -0.39857       -2.68918
C          2.17285        0.79941       -2.66647
C          3.05955        0.51465       -1.47258
H          0.76399       -0.22219        1.05816
H          0.43870       -0.29858       -0.67302
H          0.84292        1.25106        0.07842
H          3.09750        0.44892        0.65215
H          2.43363       -1.99930        0.83573
H          3.98644       -1.69915        0.05935
H          2.08883       -3.34028       -1.16162
H          2.18032       -2.28932       -3.36281
H          3.94559       -0.35989       -3.33107
H          1.10352        0.64456       -2.60745
H          2.44427        1.63881       -3.29905
H          3.93102        1.14472       -1.32864
