17

C          0.94317        0.07171        0.04036
C          2.24703        0.07171        0.04036
C          3.76703        0.07171        0.04036
C          4.25642       -1.30318       -0.46389
C          4.07211       -1.21966       -1.95792
N          5.10358       -0.66207       -2.81774
C          4.06898        0.23762       -2.33349
C          4.25094        1.03488       -1.06524
H         -0.12263        0.07237        0.04290
H          4.14914        0.32823        1.03204
H          3.68717       -2.13495       -0.03515
H          5.31622       -1.44762       -0.22282
H          3.31088       -1.86706       -2.37195
H          4.93469       -0.91466       -3.79184
H          3.30569        0.59994       -3.00878
H          3.67457        1.96765       -1.09443
H          5.30784        1.28463       -0.92385
