17

C          1.46607       -0.20072       -0.53613
C          2.63527       -0.01540       -0.33594
C          4.01556        0.22583       -0.02617
C          4.81448       -0.96114        0.46787
N          5.11343       -0.37375       -0.83197
C          6.21938        0.60321       -0.78382
C          5.56018        1.95361       -0.53774
C          4.40117        1.62258        0.38948
H          0.42350       -0.35695       -0.67396
H          4.36714       -1.94873        0.42336
H          5.51217       -0.82963        1.28347
H          6.77900        0.60452       -1.72504
H          6.93534        0.37208        0.01703
H          5.17462        2.34979       -1.48661
H          6.24070        2.69343       -0.11000
H          3.59015        2.34924        0.26753
H          4.71641        1.63551        1.43750
