22

C          0.89606       -0.30434        0.17514
C          2.39129       -0.17823       -0.01994
N          2.71179        0.31865       -1.36671
C          3.16490        0.62774        1.06510
C          4.38498       -0.30762        0.84364
C          5.51494        0.33202        0.06334
N          4.85020       -0.85384        2.12944
C          3.36616       -1.35588        0.26312
H          0.38696        0.63083       -0.09235
H          0.64225       -0.52047        1.21750
H          0.47456       -1.10111       -0.44653
H          2.22101        1.17123       -1.62867
H          2.51101       -0.35619       -2.10676
H          2.71326        0.55165        2.06247
H          3.31953        1.69023        0.85715
H          5.92220        1.18804        0.61830
H          6.33018       -0.36927       -0.12160
H          5.18680        0.71854       -0.90618
H          5.48827       -0.23519        2.62955
H          5.36890       -1.72762        2.01825
H          2.94996       -2.06255        0.99844
H          3.70876       -1.94667       -0.59307
