17

C          1.03621        0.25056       -0.25529
C          2.47025        0.04659        0.09833
N          3.26071        1.00791        0.48104
N          4.51654        0.53124        0.79148
C          5.22615        0.17598       -0.43343
C          4.51078       -0.88291        0.37676
C          3.12363       -1.30563        0.03896
N          2.54879       -2.17765        1.06043
H          0.81663        1.31685       -0.35361
H          0.40534       -0.17275        0.53087
H          0.81599       -0.25096       -1.20107
H          6.30685        0.22370       -0.36606
H          4.81850        0.51767       -1.37644
H          5.10132       -1.57363        0.95914
H          3.04116       -1.73760       -0.96197
H          2.63961       -1.71354        1.96741
H          3.10089       -3.03048        1.12768
