15

C          1.14847        0.56281       -0.28369
C          2.39270        0.10931       -0.09174
C          3.03216       -0.79112       -1.04756
C          3.77517       -0.27787       -2.10899
C          4.34816       -1.17114       -2.99872
N          4.22913       -2.51272       -2.89950
C          3.50082       -2.98168       -1.86314
C          2.88866       -2.17146       -0.92136
H          0.68691        1.23333        0.43404
H          0.56300        0.28082       -1.15422
H          2.97263        0.39684        0.78042
H          3.90410        0.78988       -2.24581
H          4.93497       -0.81998       -3.84269
H          3.41769       -4.06337       -1.80836
H          2.31302       -2.60965       -0.11360
