16

C          1.57252        0.29347       -0.41363
C          2.73963        0.10792       -0.18570
C          4.09264       -0.15277        0.20319
C          4.44451       -1.56239        0.62408
N          5.59908       -1.94725       -0.22995
C          6.34971       -0.69638       -0.46412
C          5.28550        0.35963       -0.51800
N          4.85529        1.00563        0.71273
H          0.52707        0.43695       -0.55488
H          3.62277       -2.26824        0.45953
H          4.72519       -1.59868        1.68146
H          5.22209       -2.24631       -1.12959
H          6.93001       -0.75654       -1.38902
H          7.04251       -0.52154        0.36800
H          5.18919        0.88054       -1.45820
H          4.35537        1.87094        0.50328
