11

C          1.07577        0.04162       -0.05494
C          2.27446        0.02678        0.02497
C          3.69462        0.01149        0.14068
N          4.32841        1.19375        0.05666
C          5.66302        1.11338        0.22071
C          6.31526       -0.07558        0.45465
N          5.62780       -1.23014        0.52304
N          4.27994       -1.18601        0.36345
H          0.01255        0.05523       -0.11539
H          6.20419        2.05153        0.16240
H          7.38539       -0.14035        0.59413
