16

C          1.25817        0.55529        0.30415
C          2.39069       -0.06993       -0.04327
C          3.11118        0.29824       -1.28810
N          3.57060        1.71258       -1.25701
C          4.83331        1.29032       -1.90226
C          4.59708       -0.13430       -1.36907
C          4.88943       -1.20274       -2.29287
N          5.13596       -2.06681       -3.02738
H          0.72073        0.27605        1.20516
H          0.84027        1.35764       -0.29853
H          2.77312       -0.88033        0.57111
H          2.52141        0.06598       -2.18636
H          3.68859        2.08204       -0.31209
H          5.72708        1.79461       -1.52160
H          4.81334        1.39987       -2.99374
H          5.06791       -0.28687       -0.38720
