21

C          0.93368        0.28234       -0.44255
C          2.39273        0.01246       -0.10684
C          2.99484        0.90964        0.99347
C          2.96247        2.45738        0.75657
N          2.56587        2.64838        2.16529
C          2.08770        1.25424        2.22839
C          4.36081        0.39267        1.40982
C          5.39087        0.35074        0.55438
H          0.63333       -0.32625       -1.30231
H          0.75220        1.32911       -0.69831
H          0.27515        0.01073        0.38752
H          2.97453        0.12787       -1.02977
H          2.47562       -1.04129        0.18952
H          2.20817        2.81038        0.04537
H          3.91111        2.93503        0.49227
H          1.84908        3.35613        2.31529
H          1.00667        1.17467        2.07601
H          2.32268        0.74296        3.16769
H          4.49277        0.06287        2.43768
H          5.30323        0.68050       -0.47531
H          6.35937       -0.01857        0.87861
