12

C          1.05754       -0.01308       -0.15822
C          2.25756       -0.03822       -0.09339
C          3.67911       -0.06723        0.00395
N          4.30863        1.11906       -0.00113
C          5.64534        1.06062        0.13873
C          6.34498       -0.11692        0.28071
C          5.58906       -1.26745        0.26538
N          4.25040       -1.27601        0.12902
H         -0.00566        0.00892       -0.20343
H          6.15425        2.02001        0.13791
H          7.41899       -0.13647        0.39899
H          6.05090       -2.24494        0.36994
