21

C          1.07561        0.50841       -2.16828
C          2.53845        0.25146       -1.83994
C          2.99544        1.05861       -0.62498
C          4.39405        0.69506       -0.21839
C          5.53581        1.30634       -0.57370
C          5.74101        2.43772       -1.47816
C          5.23769        3.82103       -1.17369
N          6.64474        3.48563       -0.99665
H          0.78596       -0.04879       -3.06501
H          0.89296        1.57137       -2.35408
H          0.42823        0.18622       -1.34659
H          3.15138        0.51614       -2.70986
H          2.67988       -0.82141       -1.66083
H          2.33447        0.85223        0.22681
H          2.90756        2.13118       -0.82682
H          4.47191       -0.17243        0.43628
H          6.45481        0.86790       -0.18181
H          5.86671        2.17244       -2.52328
H          4.66429        4.00050       -0.27481
H          5.02482        4.48339       -2.00466
H          6.85454        3.36145       -0.00184
