19

C          0.98057        0.12909       -0.10234
C          2.49470       -0.08147       -0.11383
C          2.96890       -0.60207        1.22408
C          2.52454       -1.94114        1.76471
N          3.90877       -1.71306        1.36576
C          2.96660       -0.89709       -1.32060
N          2.19244       -1.86235       -1.88922
N          4.14928       -0.72711       -1.82129
H          0.69218        0.82022        0.69692
H          0.44132       -0.80933        0.06903
H          0.63501        0.54477       -1.05448
H          2.94720        0.91257       -0.23783
H          3.09306        0.20052        1.94458
H          1.94419       -2.60921        1.14166
H          2.34733       -2.02341        2.83059
H          4.10484       -2.16704        0.46675
H          1.19162       -1.71802       -1.90970
H          2.57091       -2.16109       -2.78421
H          4.65994       -0.00941       -1.29198
