19

C          3.26545        0.06919       -1.33373
C          2.53059       -0.07659       -0.00600
C          3.16484        0.78063        1.09755
C          3.08755        2.32086        0.87718
N          2.67028        2.48291        2.28423
C          2.21383        1.07704        2.30034
C          4.47751        0.26496        1.48924
C          5.54935       -0.17595        1.80119
H          2.82737       -0.59716       -2.08337
H          4.32732       -0.17915       -1.24172
H          3.19365        1.09417       -1.71112
H          2.52094       -1.13243        0.29238
H          1.48331        0.21075       -0.16137
H          2.31942        2.64219        0.16227
H          4.02479        2.82466        0.62010
H          1.94512        3.17896        2.44532
H          1.14408        0.97072        2.08135
H          2.42241        0.54700        3.23491
H          6.49938       -0.57263        2.07585
