21

C          0.94214       -0.06504        0.00590
C          2.45370        0.09917       -0.00113
C          2.99031        1.06725       -1.07075
N          4.47620        1.07010       -0.95611
C          4.82659        2.29862       -0.21648
C          3.65931        3.19427       -0.40170
C          2.62382        2.51144       -0.90062
C          1.31823        3.07974       -1.33080
H          0.66192       -0.89868        0.65794
H          0.55826       -0.27404       -0.99719
H          0.44666        0.82605        0.39859
H          2.89666       -0.89102       -0.17221
H          2.77370        0.41042        1.00205
H          2.71608        0.71164       -2.07118
H          4.84506        1.17678       -1.90059
H          5.74109        2.73842       -0.62534
H          4.98400        2.07803        0.84422
H          3.67255        4.25168       -0.18347
H          1.29284        4.16597       -1.19504
H          0.48646        2.66164       -0.76066
H          1.14840        2.87457       -2.39251
