19

C          2.27258        3.01859       -0.17290
C          3.34451        2.02522       -0.09554
C          4.20852        1.19192       -0.04723
C          5.23005        0.13713       -0.02908
C          5.69955        0.05977        1.39418
N          6.74818       -0.91279        1.75476
C          7.09531        0.50174        1.77457
C          7.34702        1.16679        3.08282
H          1.55266        2.88105        0.63851
H          1.73266        2.93289       -1.12194
H          2.67541        4.03341       -0.10373
H          6.04881        0.38066       -0.71512
H          4.79781       -0.81980       -0.33786
H          4.89990        0.11851        2.12532
H          7.12920       -1.37311        0.92668
H          7.77436        0.84464        1.00326
H          6.70735        0.77472        3.88002
H          7.16322        2.24215        2.99615
H          8.39017        1.02465        3.38321
