21

C          0.80452       -1.02340       -0.66779
C          2.29684       -1.00527       -0.70599
C          3.06713       -1.14338        0.38562
C          4.56904       -1.09572        0.35558
C          5.25431       -2.32210        0.88783
N          5.01235       -3.65195        0.31524
C          6.29307       -3.01714        0.03690
C          7.53556       -3.54249        0.66352
H          0.40690       -0.87227       -1.67696
H          0.42077       -0.21684       -0.03546
H          0.43305       -1.98457       -0.30130
H          2.75716       -0.86161       -1.68076
H          2.60396       -1.28594        1.35995
H          4.89268       -0.23871        0.95896
H          4.91633       -0.88825       -0.66458
H          5.36961       -2.30532        1.96586
H          4.37046       -3.58062       -0.47757
H          6.45388       -2.69329       -0.98441
H          7.36129       -3.94142        1.66796
H          8.27817       -2.74141        0.74041
H          7.96238       -4.34008        0.04746
