20

C          1.01629       -0.02721        0.06773
C          2.53915       -0.09411        0.10994
C          3.12114        1.03831        0.95995
C          4.51986        0.55880        1.31488
C          4.33369       -0.92405        1.48453
C          5.13054       -1.69255        2.23573
C          3.14140       -1.33098        0.75008
C          2.64373       -2.57247        0.67097
H          0.68602        0.93875       -0.32923
H          0.57980       -0.14869        1.06531
H          0.60290       -0.80780       -0.57909
H          2.93009       -0.00919       -0.91327
H          2.53186        1.19227        1.87406
H          3.14385        1.98888        0.41662
H          4.89178        1.05017        2.21934
H          5.21487        0.75771        0.49069
H          5.98527       -1.26805        2.75311
H          4.96601       -2.75673        2.35886
H          3.11501       -3.41806        1.15914
H          1.74576       -2.78690        0.10141
