19

C          3.44066       -1.04060       -0.90003
C          2.66597       -0.02144       -0.10709
C          1.32186       -0.03011       -0.11125
C          3.38952        0.97657        0.67071
C          4.72594        1.09953        0.73573
C          5.48433        2.08144        1.51305
C          6.42827        2.99245        0.76572
N          5.19874        3.50317        1.35632
H          2.78222       -1.73766       -1.43021
H          4.08054       -1.63745       -0.24088
H          4.06740       -0.55038       -1.65291
H          0.76462       -0.76695       -0.68217
H          0.73510        0.69103        0.44985
H          2.78349        1.68119        1.24142
H          5.34976        0.39936        0.18428
H          5.78113        1.76400        2.50737
H          6.46240        2.96244       -0.31635
H          7.35193        3.27643        1.25427
H          4.48285        3.64773        0.64316
