21

C          1.02850        0.11955        0.06215
C          2.55026        0.05863       -0.02394
C          3.10530       -0.58757       -1.31434
C          2.67463        0.17678       -2.57235
N          2.67461       -2.00940       -1.40294
C          3.81893       -2.82992       -0.96138
C          4.99585       -1.93080       -1.04100
C          4.60235       -0.67118       -1.24005
H          0.72848        0.53615        1.02878
H          0.57901       -0.87399       -0.02620
H          0.60905        0.76277       -0.71674
H          2.91574       -0.48793        0.85667
H          2.94250        1.08005        0.07257
H          1.59108        0.12906       -2.72706
H          3.14789       -0.22893       -3.47513
H          2.95582        1.23503       -2.50435
H          2.50925       -2.23077       -2.38384
H          3.93458       -3.70412       -1.60876
H          3.66348       -3.17128        0.06737
H          6.01758       -2.25551       -0.91501
H          5.26146        0.18296       -1.30035
