16

C          1.29330       -0.22587       -0.74353
C          2.29888       -0.09305        0.13026
C          2.98302       -1.17134        0.82926
C          3.98270       -0.89801        1.69076
N          4.70033       -1.83537        2.39101
C          4.29716       -3.05355        2.25553
N          3.24878       -3.49470        1.50775
C          2.57787       -2.60412        0.58647
H          0.85432        0.65458       -1.20495
H          0.87152       -1.18276       -1.02882
H          2.64551        0.91798        0.34652
H          4.29285        0.12693        1.87687
H          4.81834       -3.86627        2.78879
H          3.15724       -4.48620        1.33353
H          1.49806       -2.72807        0.72171
H          2.83115       -2.89243       -0.44009
