20

C          3.70196        0.67830        0.70503
C          2.60608       -0.10426        0.00704
C          3.07223       -0.65371       -1.31014
N          3.12756       -1.92938       -1.55162
N          3.63807       -2.04911       -2.80213
C          3.49123       -0.81277       -3.56151
C          3.54766        0.22084       -2.44305
C          2.68516        1.43502       -2.72175
H          3.35238        1.03529        1.67865
H          4.00751        1.54993        0.11777
H          4.58942        0.05711        0.86281
H          1.73259        0.53206       -0.16609
H          2.28662       -0.93606        0.64473
H          3.27508       -2.86706       -3.29382
H          2.52421       -0.80304       -4.07802
H          4.29066       -0.68137       -4.29568
H          4.58274        0.51671       -2.23420
H          1.63026        1.16317       -2.83443
H          3.01135        1.93981       -3.63675
H          2.74896        2.15643       -1.90087
