21

C          0.62056       -2.70862       -0.57855
C          2.10732       -2.57019       -0.79277
C          2.68719       -1.39373       -0.48830
C          4.09853       -0.96234       -0.25919
C          5.18532       -0.81869       -1.31032
C          6.29399       -0.27179       -0.40547
C          6.12759       -1.09756        0.87830
N          4.80829       -1.73992        0.76028
H          0.17734       -3.44367       -1.25963
H          0.09457       -1.76272       -0.72197
H          0.44235       -3.04101        0.44896
H          2.67669       -3.43818       -1.08719
H          2.00181       -0.61751       -0.16051
H          3.95485        0.05313        0.15905
H          4.94213       -0.12535       -2.12371
H          5.49425       -1.77751       -1.74862
H          6.08926        0.78199       -0.18318
H          7.29342       -0.32837       -0.82719
H          6.16889       -0.45272        1.76473
H          6.90791       -1.85886        0.95896
H          4.30908       -1.70646        1.64148
