16

C          1.12302        0.46910       -0.51081
C          2.30145        0.02490       -0.05884
C          3.00248        0.71564        1.06630
N          2.84125        1.98927        1.25003
N          3.49298        2.66024        2.27573
C          4.24613        2.01220        3.10045
C          4.51799        0.54995        3.07575
C          3.89716       -0.15655        1.90158
H          0.61095       -0.03512       -1.32287
H          0.64785        1.35115       -0.08892
H          2.77212       -0.85785       -0.47467
H          4.72889        2.58663        3.90798
H          4.15305        0.12910        4.01948
H          5.60497        0.40953        3.07723
H          3.31579       -1.01775        2.25369
H          4.68542       -0.55623        1.25206
