20

C          1.13403       -0.27807       -0.01198
C          2.64526       -0.30163       -0.00681
C          3.31850        0.85436       -0.14095
C          4.77242        1.19146       -0.07096
C          5.80862        0.13596       -0.26366
C          5.72565       -1.18779       -0.42396
C          4.53526       -2.08853       -0.41944
C          3.23504       -1.65997        0.25859
H          0.72882        0.73600       -0.09181
H          0.74808       -0.71048        0.91716
H          0.74746       -0.85810       -0.85572
H          2.71688        1.75699       -0.26793
H          4.96206        1.68402        0.89020
H          4.95633        1.95020       -0.84334
H          6.81608        0.55437       -0.32018
H          6.66561       -1.71418       -0.60286
H          4.32795       -2.37439       -1.45795
H          4.84875       -3.01599        0.08186
H          3.33350       -1.77671        1.34518
H          2.49278       -2.41233       -0.04425
