15

C          0.92846        0.02319        0.02446
C          2.42057        0.04432       -0.02127
C          3.10623        0.59769       -1.02917
C          4.62623        0.59769       -1.02917
C          5.93009        0.59769       -1.02917
C          7.45009        0.59769       -1.02917
C          8.03187        1.88683       -0.63218
N          8.51380        2.89670       -0.32150
H          0.59011       -0.47344        0.93939
H          0.51943       -0.52955       -0.82696
H          0.52271        1.03969        0.02653
H          2.94932       -0.41229        0.81177
H          2.61936        1.06684       -1.87847
H          7.79549        0.33002       -2.03411
H          7.79558       -0.18931       -0.34939
