21

C          1.95585       -1.66089       -1.34311
C          2.56069       -1.24564       -0.04161
C          3.29474       -0.13889        0.16458
C          3.64249        0.90816       -0.85450
C          3.12638        2.29207       -0.46480
C          4.13898        3.22182       -1.09893
C          5.43898        2.47065       -0.89898
N          5.09662        1.05187       -1.01768
H          1.47873       -2.64014       -1.23325
H          2.71737       -1.75222       -2.12349
H          1.18647       -0.95056       -1.66001
H          2.38683       -1.91383        0.79976
H          3.67227        0.03202        1.17108
H          3.23528        0.64961       -1.83783
H          3.12220        2.43620        0.62336
H          2.11398        2.47825       -0.83679
H          4.14820        4.21025       -0.63073
H          3.92472        3.34479       -2.16732
H          5.84049        2.67143        0.10112
H          6.19509        2.75838       -1.63521
H          5.59801        0.50932       -0.31737
