18

C          3.66748       -0.18824        1.14450
C          2.53529       -0.14826        0.13027
C          3.05099       -0.10817       -1.26604
C          3.41207        0.93680       -2.09776
C          3.39382        2.39334       -1.83034
C          3.81650        0.30062       -3.29407
N          3.72362       -1.02790       -3.22879
N          3.25832       -1.25141       -1.99139
H          3.26439       -0.24533        2.16057
H          4.29176        0.70928        1.07691
H          4.31312       -1.05887        0.98563
H          1.90634        0.72923        0.31956
H          1.89391       -1.02716        0.26729
H          3.05253        2.61540       -0.81486
H          2.72314        2.90082       -2.53112
H          4.39734        2.81478       -1.94770
H          4.17619        0.75534       -4.20828
H          3.10466       -2.21198       -1.70360
