18

C          1.88116        2.77013       -0.54021
C          2.52951        1.67370       -0.12712
C          3.11093        0.63723       -1.05454
C          4.62657        0.45707       -0.86377
C          5.20263       -0.59874       -1.83378
N          5.77184        0.15916       -2.99125
C          5.82358        1.37811       -2.54993
N          5.35888        1.63709       -1.29906
H          1.47085        3.47660        0.17561
H          1.73287        2.98581       -1.59441
H          2.63875        1.49686        0.94150
H          2.88752        0.89567       -2.09793
H          2.60683       -0.31639       -0.85197
H          4.86201        0.20439        0.17606
H          4.44685       -1.31169       -2.17797
H          6.01660       -1.15882       -1.35850
H          6.18548        2.24218       -3.12888
H          4.92948        2.54059       -1.13155
