22

C          1.52514       -0.96790       -0.49416
C          2.52124        0.04266        0.04951
C          3.09828        0.91606       -1.02410
N          2.25508        1.79249       -1.82936
C          3.20213        2.43738       -0.89668
C          2.61300        3.16126        0.28982
C          4.42999        3.10556       -1.49204
N          4.00660        4.21704       -2.33869
H          1.19273       -1.63984        0.30419
H          1.96532       -1.57217       -1.29268
H          0.63981       -0.46625       -0.89967
H          3.34782       -0.49799        0.52585
H          2.03960        0.62180        0.84133
H          3.86010        0.38789       -1.59049
H          1.30341        1.84524       -1.46350
H          1.63146        2.77151        0.57904
H          2.47849        4.22515        0.06764
H          3.28127        3.07459        1.15253
H          5.01634        2.39972       -2.09023
H          5.08163        3.47792       -0.69386
H          3.37410        3.82801       -3.04174
H          4.81175        4.57572       -2.84631
