15

C          5.88726       -1.33846       -1.33514
C          4.91338       -0.75392       -0.69490
C          3.77805       -0.07247        0.05147
C          4.22797        0.28224        1.42823
C          4.32845        1.50878        2.05721
C          4.81379        1.28275        3.36738
C          4.99631       -0.07357        3.50819
N          4.63590       -0.67381        2.33083
H          6.68736       -1.80897       -1.85858
H          2.91566       -0.74663        0.09736
H          3.47457        0.82461       -0.49926
H          4.08383        2.46703        1.61696
H          5.01427        2.03002        4.12406
H          5.35642       -0.66222        4.34104
H          4.68693       -1.66679        2.14159
