21

C          2.84987       -1.20225        0.81124
C          2.28078       -0.00934        0.09712
C          1.04753       -0.02852       -0.43704
C          3.13775        1.19233       -0.06515
N          3.92050        1.12095       -1.29970
C          2.50739        2.60446        0.04126
C          3.79261        3.08066        0.75157
C          4.07229        1.60315        1.09955
H          2.12679       -2.02232        0.87767
H          3.14392       -0.94542        1.83304
H          3.73040       -1.57832        0.27996
H          0.40745       -0.90149       -0.34909
H          0.63924        0.82005       -0.97755
H          3.33614        1.07151       -2.13307
H          4.52348        0.30094       -1.34379
H          1.62578        2.66116        0.69268
H          2.27020        3.12188       -0.89413
H          3.64178        3.74726        1.60460
H          4.53437        3.52787        0.08001
H          3.70101        1.33948        2.09789
H          5.12102        1.29430        1.03717
