17

C          0.88971       -1.07938       -0.25911
C          2.38327       -1.10949       -0.25067
C          3.12003       -0.77783        0.82185
C          4.62080       -0.78098        0.84237
C          5.15264       -1.72283        1.88255
C          5.94200       -1.33950        2.89701
C          6.47108       -2.33440        3.91713
N          6.90999       -3.15976        4.76340
H          0.51739       -1.37905       -1.24424
H          0.51771       -0.07059       -0.05515
H          0.48012       -1.77557        0.47885
H          2.87026       -1.41276       -1.17487
H          2.61870       -0.46675        1.73689
H          4.96612        0.24310        1.02865
H          5.02494       -1.07743       -0.13330
H          4.87954       -2.77166        1.77373
H          6.24810       -0.31019        3.04505
