18

C          0.84489        0.11009        0.03339
C          2.37833        0.10777        0.02847
C          2.87710        1.39042       -0.58011
C          3.63934        1.63782       -1.65083
C          4.21287        0.71181       -2.58557
C          4.20937       -0.62293       -2.55602
C          3.63080       -1.50292       -1.57988
C          2.87104       -1.20331       -0.51939
H          0.44968        1.02423        0.49176
H          0.45247       -0.73636        0.60949
H          0.43920        0.04130       -0.98270
H          2.70647        0.13295        1.07757
H          2.55397        2.27337       -0.02594
H          3.85891        2.68188       -1.87527
H          4.72652        1.18822       -3.42084
H          4.71897       -1.13910       -3.36922
H          3.84399       -2.55686       -1.75794
H          2.54214       -2.05888        0.07323
