20

C          0.82325       -0.11834        0.18838
C          2.35644       -0.06854        0.11076
C          2.85558       -1.43584       -0.29006
C          3.51850       -1.86515       -1.37387
C          4.02344       -1.05262       -2.52213
C          4.67424        0.26816       -2.13089
C          3.72663        1.30272       -1.61756
C          2.76765        1.14050       -0.69510
H          0.47911       -0.97044        0.78633
H          0.37259       -0.20265       -0.80765
H          0.42516        0.78765        0.66058
H          2.72629        0.10799        1.13032
H          2.59327       -2.20974        0.43439
H          3.72222       -2.93326       -1.44472
H          3.21498       -0.89908       -3.24741
H          4.78565       -1.65195       -3.03713
H          5.15903        0.67797       -3.02649
H          5.47517        0.11291       -1.39723
H          3.86186        2.30041       -2.03365
H          2.21251        2.04397       -0.43561
