13

C          1.18720       -0.43650        0.55546
C          2.34888       -0.03251        0.02509
C          3.04316       -0.71999       -1.06405
C          3.85692       -0.05025       -1.94150
N          4.53287       -0.65190       -2.94231
N          4.42288       -1.94672       -3.09015
N          3.68971       -2.67668       -2.28998
C          3.01491       -2.07192       -1.28993
H          0.72442        0.13094        1.35827
H          0.65130       -1.31488        0.20932
H          2.81519        0.87547        0.40339
H          4.00232        1.02339       -1.88760
H          2.44839       -2.75144       -0.66287
