21

C          0.88956        0.64143        0.63311
C          2.38302        0.64387        0.65619
C          3.10295       -0.34746        1.20324
C          4.58682       -0.27671        1.21227
C          5.31226       -1.45956        1.90371
N          6.32389       -1.41562        0.82543
C          5.30999       -0.79182       -0.06500
C          5.92788        0.25090       -0.97546
H          0.52485        1.41149       -0.05406
H          0.49115        0.86167        1.62840
H          0.49770       -0.32188        0.29208
H          2.87988        1.50062        0.20685
H          2.61314       -1.20003        1.66525
H          4.95584        0.69582        1.57099
H          4.75282       -2.40307        1.93532
H          5.70352       -1.25052        2.90178
H          6.65589       -2.32744        0.51620
H          4.73402       -1.53542       -0.63415
H          6.53805        0.97187       -0.42014
H          5.14766        0.80926       -1.50250
H          6.56526       -0.22210       -1.73034
