17

C          0.93972        0.06818        0.01875
C          2.27704        0.10262       -0.00119
C          3.02273        1.20521       -0.55736
C          4.36356        1.23845       -0.58546
C          5.15384        2.37730       -1.16930
C          6.04736        3.03491       -0.12069
C          6.81908        4.18973       -0.73813
N          7.45929        5.14774       -1.25035
H          0.41653       -0.78183        0.44594
H          0.33312        0.87175       -0.38624
H          2.83277       -0.73367        0.41755
H          2.45048        2.03472       -0.97005
H          4.93609        0.40364       -0.18492
H          4.48450        3.12779       -1.60949
H          5.76646        1.98915       -1.99267
H          6.76274        2.31168        0.28799
H          5.44828        3.41883        0.71336
