18

C          1.93050        0.82327        2.48089
C          2.77841       -0.20504        2.35027
C          3.21247       -0.77196        1.02394
C          4.73994       -0.73508        0.81909
C          5.14472       -1.32469       -0.52661
C          5.36158       -0.06678       -1.29922
N          5.39713        1.01819       -0.59959
N          5.26115        0.63048        0.69261
H          1.64218        1.18603        3.46294
H          1.50333        1.32512        1.61786
H          3.17543       -0.67921        3.24558
H          2.70637       -0.25148        0.20060
H          2.87536       -1.81555        0.98185
H          5.23883       -1.26340        1.63934
H          4.37492       -1.93750       -1.00206
H          6.09048       -1.87332       -0.48588
H          5.49693       -0.09232       -2.38975
H          4.74396        1.31128        1.25295
