23

C          1.01293       -0.26898        0.10914
C          2.47462        0.08689       -0.11826
C          3.00667        1.09373        0.89354
N          3.03239        0.60896        2.29020
C          4.19988        1.90717        0.44907
C          2.88266        2.61075        0.67253
C          2.15360        3.15598       -0.53045
C          2.79829        3.53558        1.86902
H          0.68216       -0.99574       -0.64055
H          0.37435        0.61655        0.03481
H          0.85820       -0.71598        1.09587
H          2.59725        0.44446       -1.14536
H          3.07721       -0.82815       -0.05057
H          3.40528       -0.33789        2.33720
H          2.08736        0.56674        2.66631
H          4.55925        1.79568       -0.56904
H          5.00372        2.06766        1.16003
H          2.30128        2.55773       -1.43309
H          2.50654        4.16795       -0.75882
H          1.07895        3.20920       -0.32798
H          3.42335        3.20434        2.70541
H          1.76503        3.60515        2.22114
H          3.13711        4.54104        1.59431
