15

C          0.91415       -0.04862        0.01628
C          2.43415       -0.04862        0.01628
C          3.73800       -0.04862        0.01628
C          5.17101       -0.07127        0.06789
C          5.91613       -0.75685       -1.04576
C          5.95602        0.74702       -0.93110
C          7.17024        1.38051       -0.50132
N          8.15483        1.88451       -0.15229
H          0.54100        0.51967        0.87280
H          0.54102       -1.07455        0.08014
H          0.54106        0.40902       -0.90416
H          5.58929       -0.17712        1.06579
H          5.35150       -1.18564       -1.86623
H          6.79871       -1.32911       -0.77922
H          5.39359        1.30451       -1.67267
