14

C          1.04083        0.00648        0.09105
C          2.34469        0.00648        0.09105
C          3.86469        0.00648        0.09105
C          4.54938        1.06881        0.53069
C          3.96183        2.37386        1.05144
N          5.14018        3.15085        1.59294
C          6.15311        2.38253        1.31631
N          5.89674        1.21992        0.67354
H         -0.02448        0.00847        0.09189
H          4.35166       -0.90028       -0.24824
H          3.24590        2.20693        1.86228
H          3.50057        2.95401        0.24502
H          7.20169        2.59658        1.57090
H          6.54562        0.45701        0.56605
