23

C          0.99950       -1.23524        1.17774
C          2.51744       -1.27756        1.19364
C          3.12035        0.10728        1.42899
C          4.61938        0.04635        1.44857
N          5.38826        1.26900        1.68007
C          5.38853        0.25528        2.73421
C          6.65196       -0.50984        2.99306
C          6.45161       -1.55124        4.08269
H          0.59330       -2.23482        0.99299
H          0.63275       -0.56940        0.38838
H          0.60606       -0.88008        2.13593
H          2.87457       -1.67945        0.23709
H          2.85558       -1.97031        1.97288
H          2.73846        0.52025        2.37161
H          2.80096        0.78442        0.62872
H          5.02982       -0.59367        0.67587
H          4.77690        2.04932        1.92717
H          4.86949        0.53913        3.64209
H          7.44040        0.18545        3.30412
H          7.00203       -1.00764        2.08066
H          6.18300       -1.07510        5.03208
H          7.37125       -2.12392        4.23816
H          5.64965       -2.24825        3.81911
