20

C          0.92092        0.08650        0.00901
C          2.45518        0.04251        0.07276
C          3.05051        1.35558       -0.48476
C          3.80997        1.29402       -1.80977
C          4.19322       -0.06535       -2.28514
C          3.82278       -1.20325       -1.69315
C          2.99703       -1.25278       -0.51016
C          2.73323       -2.44214        0.05871
H          0.53979        0.99560        0.48907
H          0.47539       -0.75985        0.54645
H          0.56088        0.06366       -1.02319
H          2.71132        0.03577        1.14298
H          3.73479        1.76075        0.27360
H          2.26825        2.12178       -0.57827
H          4.72277        1.89667       -1.71305
H          3.21439        1.77442       -2.59487
H          4.81638       -0.11327       -3.17505
H          4.16419       -2.14544       -2.11981
H          3.11062       -3.37489       -0.35017
H          2.12238       -2.51784        0.95263
