20

C          1.00038       -0.50768        0.29576
C          2.49048       -0.55597        0.38469
C          3.27743       -0.81967       -0.67023
C          4.74490       -0.89836       -0.67379
C          5.53936        0.00551       -1.59043
N          4.88735        0.99918       -2.45505
C          5.57654        0.22280       -0.09699
N          6.79598       -0.08874        0.66024
H          0.58475       -0.06678        1.20707
H          0.58927       -1.51610        0.18975
H          0.67376        0.10660       -0.54960
H          2.93619       -0.36028        1.35705
H          2.79946       -1.02857       -1.62659
H          5.11856       -1.91123       -0.55649
H          6.42953       -0.43104       -2.04037
H          4.08195        1.41248       -1.98303
H          4.52056        0.55374       -3.29449
H          5.05437        1.10150        0.27550
H          7.28902       -0.88849        0.26630
H          6.56357       -0.34072        1.61917
