18

C          3.03080       -0.71159        0.91423
C          2.54023        0.02504       -0.32044
C          3.11458        1.41278       -0.34007
N          2.48731        2.42407        0.21519
C          3.36526        3.57697        0.14587
C          3.84167        4.14607       -1.15926
C          4.63924        3.05966       -0.51336
N          4.37715        1.65945       -0.85473
H          2.62596       -1.72828        0.94019
H          2.71987       -0.19422        1.82798
H          4.12310       -0.77690        0.92624
H          1.44691        0.08505       -0.31638
H          2.85117       -0.50543       -1.22628
H          3.37467        4.24168        0.99830
H          4.25680        5.14677       -1.14756
H          3.27468        3.91721       -2.05287
H          5.58084        3.26893       -0.02537
H          5.07149        0.93086       -0.74481
