22

C          2.99645        0.30698        1.35771
C          2.28737       -0.11249        0.07080
C          2.20875        1.08572       -0.88186
C          2.99917       -1.26188       -0.60536
C          3.02440       -2.67509       -0.07089
N          2.38838       -3.04683        1.19114
C          2.17835       -2.33832       -1.27428
N          2.55579       -2.82957       -2.59877
H          2.50046        1.17045        1.81247
H          4.04189        0.57497        1.16704
H          2.99437       -0.49898        2.09659
H          1.26133       -0.40511        0.32524
H          3.20585        1.48625       -1.09885
H          1.60919        1.89149       -0.44456
H          1.75239        0.80098       -1.83510
H          3.91165       -0.93122       -1.09227
H          3.93526       -3.23984       -0.26736
H          1.52272       -2.53071        1.34619
H          2.99710       -2.83426        1.97904
H          1.10215       -2.32776       -1.11200
H          3.56593       -2.82895       -2.72959
H          2.16812       -2.23573       -3.33008
