17

C          1.96497        0.23294        1.03245
C          2.38015       -0.17112       -0.17540
C          3.42283       -1.16207       -0.44095
N          3.20013       -2.53272        0.00523
C          3.15761       -2.26822       -1.43911
C          4.26999       -2.80165       -2.29142
C          3.96447       -2.34671       -3.65491
C          3.72725       -2.01009       -4.78400
H          1.19588        0.99215        1.13372
H          2.38978       -0.18156        1.94218
H          1.92762        0.29283       -1.05011
H          4.44091       -0.80023       -0.33176
H          2.25529       -2.63324        0.38075
H          2.17427       -2.38836       -1.88022
H          4.29163       -3.89598       -2.24811
H          5.24900       -2.42720       -1.97090
H          3.52333       -1.73138       -5.79176
