20

C          0.96095       -0.28800       -0.32964
C          2.27127        0.37771       -0.64839
C          3.43544        0.29961       -0.24961
C          3.53033       -0.67838        0.89871
N          4.91994       -0.39789        0.97493
C          2.76161       -0.72819        2.33938
N          3.09436       -2.20858        2.39601
C          3.07575       -2.22266        0.88986
H          0.51570        0.27176       -1.14787
H          0.48358        0.02602        0.59433
H          0.90805       -1.35591       -0.54849
H          2.15730        1.02110       -1.45911
H          4.34735        1.00737       -0.80272
H          4.90930        0.65122        1.03057
H          5.21143       -0.59094       -0.01055
H          1.66110       -0.62297        2.42949
H          3.11502       -0.15189        3.20911
H          2.43680       -2.83391        2.89087
H          2.05826       -2.51783        0.56830
H          3.69481       -2.98277        0.40352
