23

C          3.03070        0.84507        1.36391
C          2.31686        0.26328        0.15328
C          3.05946        0.52494       -1.15102
C          4.41300       -0.14652       -1.22657
N          2.24311        0.49010       -2.37520
C          2.79485        1.79405       -2.00225
C          1.84459        2.86148       -1.51702
C          3.86770        2.33981       -2.91878
H          2.42372        0.70260        2.26357
H          3.21697        1.91539        1.23811
H          3.99260        0.34975        1.53103
H          1.29549        0.65750        0.12377
H          2.20994       -0.82008        0.28862
H          4.37189       -1.15018       -0.78858
H          5.15530        0.43775       -0.67396
H          4.77276       -0.26631       -2.25443
H          1.24764        0.43495       -2.15916
H          0.99229        2.46806       -0.95498
H          1.43329        3.41895       -2.36685
H          2.37675        3.57170       -0.87402
H          4.44192        1.55681       -3.42370
H          4.56543        2.96510       -2.35311
H          3.41762        2.95644       -3.70573
