15

C          3.46222        0.36603       -0.95800
C          2.42423        0.00773        0.09475
C          2.86770       -1.12723        0.95743
C          3.58789       -0.95902        2.10986
N          3.99983       -1.98444        2.88009
N          3.70707       -3.20761        2.51754
N          3.03138       -3.46561        1.42679
C          2.61954       -2.44014        0.65653
H          3.10019        1.19070       -1.58041
H          3.67477       -0.48546       -1.61342
H          4.40489        0.67837       -0.49618
H          1.47720       -0.24966       -0.39525
H          2.21407        0.88550        0.71805
H          3.87281        0.02225        2.47398
H          2.07023       -2.73438       -0.23131
