16

C          1.05355       -0.09274        0.12923
C          2.38988       -0.03290        0.10564
C          3.20371       -0.19828        1.28772
C          4.54048       -0.11861        1.31446
C          5.48272        0.16485        0.15298
N          6.84456        0.34945        0.77959
C          6.62431        0.10941        2.03972
N          5.36153       -0.21263        2.39943
H          0.48062        0.04898       -0.78243
H          0.49542       -0.27637        1.04179
H          2.88634        0.15965       -0.84268
H          2.67444       -0.39120        2.21875
H          5.20962        1.08093       -0.37832
H          5.52842       -0.68254       -0.53932
H          7.37952        0.15849        2.83877
H          5.01225       -0.23860        3.34462
