22

C          0.89258        0.26078        0.26182
C          2.41220        0.11905        0.08746
C          2.98760        1.42307       -0.51272
C          3.82477        1.35386       -1.78507
C          4.30666        0.00897       -2.18898
C          3.89301       -1.13156       -1.63292
C          2.88047       -1.23344       -0.52898
C          1.75264       -2.16825       -0.98582
H          0.65127        1.19110        0.78876
H          0.48380       -0.55298        0.87016
H          0.37726        0.28022       -0.70165
H          2.79272        0.09996        1.12142
H          3.60668        1.89335        0.26539
H          2.18404        2.15186       -0.68632
H          4.69982        2.00745       -1.65677
H          3.25472        1.77841       -2.62040
H          5.03110       -0.03064       -3.00001
H          4.30746       -2.06673       -2.00471
H          3.39627       -1.76789        0.28193
H          1.14725       -1.71617       -1.77823
H          1.09598       -2.43651       -0.15114
H          2.15587       -3.11014       -1.37602
