20

C          1.07204        0.02510       -0.00737
C          2.59338        0.02191       -0.02005
C          3.13866       -0.94585       -1.07090
C          4.64139       -0.97115       -1.06660
C          5.38901       -0.63112       -2.12744
C          6.87589       -0.68437       -2.13255
N          7.62462       -1.12203       -1.08591
N          7.54251       -0.30786       -3.18013
H          0.70089        0.71992        0.75132
H          0.68253       -0.97389        0.22202
H          0.67359        0.33736       -0.97538
H          2.95632       -0.25846        0.97604
H          2.95237        1.03814       -0.22015
H          2.75647       -0.66763       -2.06124
H          2.77827       -1.95993       -0.86401
H          5.10307       -1.30529       -0.14458
H          4.91911       -0.30673       -3.05182
H          7.24334       -1.11069       -0.15136
H          8.60530       -0.87928       -1.16181
H          6.91110       -0.01660       -3.93091
