18

C          1.02725        0.05482       -0.09272
C          2.55647        0.06472       -0.06694
C          3.07410       -1.01566        0.88796
C          4.57610       -0.94406        1.07502
N          5.38555       -1.72480        0.31067
N          5.11822       -0.14905        1.93797
C          3.06313       -0.16401       -1.48165
C          3.49774       -0.36021       -2.69518
H          0.61505        0.23082        0.90583
H          0.64246       -0.90606       -0.45498
H          0.64202        0.83395       -0.76023
H          2.90274        1.05172        0.26352
H          2.81292       -2.01894        0.52581
H          2.60945       -0.89590        1.87453
H          5.06428       -1.92593       -0.62885
H          6.35302       -1.42126        0.35028
H          4.40322        0.37318        2.45360
H          3.84665       -0.51036       -3.69125
