13

C          0.93390        0.03131        0.06820
C          2.23776        0.03131        0.06820
C          3.75776        0.03131        0.06820
C          4.30377       -0.16424       -1.34919
C          3.93717       -1.47796       -1.89359
N          3.65424       -2.51452       -2.32977
C          4.26442        1.35053        0.62797
C          4.69904        2.48216        1.10815
H         -0.13213        0.02785        0.06898
H          4.10313       -0.77825        0.72394
H          5.39827       -0.08015       -1.34005
H          3.93685        0.62484       -2.01857
H          5.04737        3.40816        1.50539
