23

C          1.09861       -0.10797       -0.06147
C          2.61162        0.04681        0.00737
C          3.08577        1.49362        0.25983
C          2.55476        2.05643        1.60057
N          2.95769        3.44614        1.83147
C          4.60605        1.50870        0.22747
C          5.33026        2.24180       -0.63260
C          6.82372        2.26980       -0.65306
H          0.84136       -1.11772       -0.39804
H          0.65840        0.60616       -0.76390
H          0.63664        0.03549        0.91996
H          3.03196       -0.30616       -0.94376
H          2.99911       -0.62234        0.78660
H          2.69743        2.12340       -0.55324
H          2.90853        1.43879        2.43465
H          1.46114        2.03055        1.61448
H          3.97401        3.51519        1.77119
H          2.70619        3.71840        2.77985
H          5.11286        0.88540        0.96230
H          4.82593        2.87172       -1.36284
H          7.26046        1.60177        0.09614
H          7.17884        3.28540       -0.45290
H          7.19003        1.96413       -1.63775
