18

C          2.07938       -0.92810        0.88539
C          2.24700        0.11921        0.06244
C          3.27857        1.19410        0.26728
C          4.24861        1.24974       -0.88400
C          4.39582        2.49503       -1.35508
C          3.54473        3.47181       -0.60146
C          2.70545        2.60304        0.30439
C          1.59831        3.02074        0.93659
H          1.32487       -1.68127        0.67930
H          2.68925       -1.05897        1.77446
H          1.61370        0.20157       -0.81869
H          3.85189        1.01827        1.18637
H          4.77509        0.38323       -1.25910
H          5.05177        2.77730       -2.16612
H          2.92632        4.05792       -1.28729
H          4.18349        4.14087       -0.01481
H          1.26128        4.04913        0.85603
H          1.00219        2.34451        1.54066
