23

C          1.06697       -0.04033        0.08400
C          2.58765       -0.03414        0.04875
C          3.11808       -0.49837       -1.30721
C          4.64795       -0.48627       -1.34162
C          5.17575       -0.98100       -2.69104
N          6.64269       -0.96150       -2.67070
C          7.23360       -1.36710       -3.94378
C          7.23425        0.07469       -3.51314
H          0.70876        0.29432        1.06233
H          0.67448       -1.04655       -0.09562
H          0.65447        0.63014       -0.67660
H          2.96731       -0.68890        0.84176
H          2.94760        0.97862        0.26342
H          2.72826        0.15450       -2.09774
H          2.75343       -1.51194       -1.51576
H          5.03521       -1.12499       -0.53731
H          5.00910        0.53173       -1.14893
H          4.74776       -0.37321       -3.49968
H          4.83499       -2.01164       -2.85047
H          6.57345       -1.67053       -4.74653
H          8.16120       -1.92110       -3.87254
H          6.58573        0.77049       -4.03067
H          8.16578        0.49712       -3.15482
