16

C          0.99205       -0.31724        0.25296
C          2.47872       -0.22488        0.13599
C          3.32437       -0.89475        0.93956
C          4.77700       -0.82670        0.86266
C          5.61590       -1.53897        1.63905
N          5.37111       -2.47712        2.60883
C          5.41870        0.05547       -0.19583
N          5.95105        0.78731       -1.07394
H          0.52155        0.31573       -0.50821
H          0.64754        0.02671        1.23139
H          0.64844       -1.34752        0.08475
H          2.83939        0.43863       -0.64056
H          2.90949       -1.54714        1.70325
H          6.69087       -1.41543        1.49378
H          4.43932       -2.52020        3.01253
H          6.13488       -2.68735        3.25021
