19

C          1.62686       -0.99480        0.71017
C          2.49061       -0.03112       -0.08865
C          3.02578        1.07330        0.77766
C          4.33317        1.31491        0.96312
C          4.86319        2.43864        1.81165
C          5.72983        1.92228        2.95969
C          6.23113        3.03674        3.77406
N          6.62806        3.91812        4.41617
H          1.24605       -1.78889        0.05994
H          0.76712       -0.48158        1.15426
H          2.19922       -1.46317        1.51798
H          1.89238        0.41160       -0.89321
H          3.30612       -0.58773       -0.56493
H          2.28400        1.71041        1.25668
H          5.07066        0.68735        0.46506
H          4.03786        3.04186        2.21188
H          5.45186        3.10680        1.17028
H          6.57768        1.35036        2.56364
H          5.15047        1.23876        3.59201
