18

C          1.06836        0.06996       -0.02081
C          2.58836        0.06996       -0.02081
C          3.89221        0.06996       -0.02081
C          5.41221        0.06996       -0.02081
C          5.90663        0.28824        1.40502
C          7.40675        0.35434        1.46882
N          8.07319       -0.51921        2.15470
N          9.40405       -0.29320        2.19427
H          0.69518       -0.69244       -0.71025
H          0.69521        1.04825       -0.33631
H          0.69526       -0.14593        0.98420
H          5.77558        0.86258       -0.68450
H          5.77787       -0.88480       -0.41462
H          5.54836       -0.51127        2.06517
H          5.52544        1.23855        1.79944
H          7.89687        1.18625        0.92878
H          9.88089       -1.09286        2.61644
H          9.81935       -0.15062        1.27289
