20

C          1.20551        0.34563        0.37189
C          2.68761        0.21349        0.51210
C          3.54614       -0.34120       -0.37641
C          3.06340       -1.00341       -1.65461
N          3.58318       -0.36084       -2.85689
C          4.98701       -0.49785       -0.06963
C          6.05134        0.16491       -0.90488
N          5.72858        0.67094        0.42024
H          0.82961        1.07970        1.09232
H          0.71669       -0.61019        0.58519
H          0.91582        0.69248       -0.62382
H          3.09213        0.59397        1.44952
H          3.35399       -2.06073       -1.65068
H          1.97052       -0.99622       -1.71846
H          4.48715       -0.77483       -3.08207
H          2.97594       -0.58542       -3.64198
H          5.24406       -1.43430        0.41607
H          5.78100        0.80698       -1.73304
H          7.00386       -0.34166       -1.00192
H          5.15168        1.51162        0.33988
