19

C          0.97221       -0.02720        0.02308
C          2.50775       -0.03941        0.06456
C          3.05345       -1.42671       -0.34678
C          2.70132       -2.48562        0.62067
C          2.40406       -3.35025        1.39723
N          3.06509        0.94223       -0.89176
C          2.78811        2.34373       -0.60701
C          4.13888        1.75389       -0.31288
H          0.55501       -0.77954        0.70108
H          0.59359       -0.23442       -0.98338
H          0.57104        0.93887        0.34603
H          2.81558        0.16920        1.09859
H          4.14752       -1.38682       -0.42848
H          2.67465       -1.70305       -1.33948
H          2.13337       -4.11969        2.07967
H          2.14430        2.59919        0.22375
H          2.69773        2.98385       -1.47609
H          4.41321        1.62168        0.72772
H          4.96069        1.99495       -0.97715
