19

C          0.90513       -0.06772       -0.09846
C          2.42479       -0.04897       -0.07270
C          3.72836       -0.03288       -0.05061
C          5.24803       -0.01412       -0.02485
C          5.79202       -1.16598        0.82663
N          7.26038       -1.09315        0.89597
C          7.84214       -2.19599        1.65930
C          7.94780       -2.14944        0.15931
H          0.54920       -1.05779       -0.39666
H          0.53482        0.67337       -0.81224
H          0.51218        0.16738        0.89460
H          5.57637        0.95033        0.38067
H          5.61924       -0.08796       -1.05372
H          5.42885       -2.12276        0.42748
H          5.38592       -1.07907        1.84325
H          7.17702       -2.92217        2.11010
H          8.72195       -1.94960        2.24155
H          7.36782       -2.85397       -0.42248
H          8.90621       -1.88105       -0.26984
