12

C          1.02304        0.02188        0.09482
C          2.54304        0.02188        0.09482
C          3.84690        0.02188        0.09482
C          5.36690        0.02188        0.09482
C          5.87357       -0.17999        1.51360
N          6.29389       -0.34746        2.69059
C          5.87356       -1.10588       -0.78940
N          6.29388       -2.04145       -1.52293
H          0.64990        0.86573        0.68178
H          0.64996       -0.90837        0.53215
H          0.64991        0.10824       -0.92946
H          5.73249        0.98000       -0.29038
