23

C          0.91341        0.16672       -0.11761
C          2.42153        0.01372        0.00881
C          2.92955       -0.35253        1.42337
C          2.48318       -1.74351        1.93974
N          1.04716       -1.85101        2.19208
C          4.45619       -0.24199        1.48201
C          5.28619       -1.14290        0.60608
C          5.06662        0.63581        2.29694
H          0.66626        0.64616       -1.07001
H          0.50528        0.78459        0.68763
H          0.41036       -0.80418       -0.11135
H          2.87771        0.96670       -0.28979
H          2.75299       -0.73103       -0.72662
H          2.51394        0.39654        2.11322
H          3.00093       -1.96254        2.88148
H          2.76993       -2.52368        1.22606
H          0.76093       -1.13604        2.85930
H          0.84688       -2.74993        2.62757
H          4.67673       -1.71398       -0.09964
H          5.84100       -1.86283        1.21643
H          5.99989       -0.55734        0.01631
H          4.50408        1.30015        2.94660
H          6.14933        0.70966        2.33938
