20

C          0.96441       -0.04351       -0.10215
C          2.48440       -0.04374       -0.09521
C          3.78824       -0.04394       -0.08927
C          5.30822       -0.04418       -0.08233
N          5.79496       -1.41721       -0.14987
C          7.26413       -1.44053       -0.11336
C          7.81054       -2.87855       -0.19245
N          7.32570       -3.59336       -1.37822
H          0.59562       -0.40662       -1.06547
H          0.59064        0.97090        0.06247
H          0.58756       -0.69470        0.69144
H          5.64564        0.44489        0.83859
H          5.66237        0.54219       -0.93799
H          5.49669       -1.81332       -1.04098
H          7.62450       -0.98415        0.81609
H          7.66801       -0.85928       -0.95185
H          7.51660       -3.43726        0.70369
H          8.90503       -2.84580       -0.21523
H          6.32101       -3.73223       -1.26839
H          7.72876       -4.53014       -1.38034
