21

C          0.89432       -0.05365        0.05293
C          2.43260       -0.02524        0.09246
C          2.91477        0.56400        1.42928
C          2.93887       -1.47944        0.00381
N          3.00342        0.70178       -1.05921
C          2.62569        2.11041       -1.15939
C          3.20314        2.71493       -2.37067
C          3.64255        3.25775       -3.34715
H          0.49368       -0.68044        0.86015
H          0.52932       -0.46534       -0.89424
H          0.45915        0.94229        0.18090
H          2.53662       -0.02425        2.27430
H          2.56969        1.59108        1.57857
H          4.00979        0.56194        1.49222
H          2.53532       -2.08582        0.82303
H          4.03197       -1.53003        0.06707
H          2.63470       -1.95661       -0.93550
H          2.73292        0.23597       -1.92527
H          2.98697        2.67414       -0.29307
H          1.54009        2.22620       -1.21348
H          4.02109        3.76572       -4.20472
