20

C          1.09649       -0.38872       -0.17073
C          2.54777       -0.01256        0.08028
C          2.89812        1.29553        0.75772
C          2.10984        2.27854        1.24387
C          0.62560        2.43818        1.28588
C          4.39064        1.56156        0.89208
N          4.91210        2.81955        0.98395
N          5.29154        0.62914        0.90753
H          1.04866       -1.36182       -0.67234
H          0.59773        0.33542       -0.82131
H          0.54510       -0.48847        0.76947
H          3.05957       -0.03196       -0.89116
H          2.96794       -0.83221        0.67546
H          2.59386        3.12933        1.72619
H          0.05734        1.61585        0.86342
H          0.34328        3.34518        0.74081
H          0.30268        2.55824        2.32496
H          4.44926        3.52730        0.42875
H          5.91621        2.79577        0.83508
H          4.87746       -0.30203        0.86539
