24

C          1.01517        0.18242        0.14411
C          2.52502        0.09279       -0.02782
C          3.03682       -0.77889       -1.20774
C          2.56637       -0.26035       -2.59292
N          1.12009       -0.32463       -2.79706
C          4.60234       -0.84734       -1.17888
C          5.17161       -1.41924        0.12407
N          5.12018       -1.67001       -2.28156
H          0.77913        0.60605        1.12666
H          0.54719       -0.80484        0.08464
H          0.56117        0.84444       -0.59730
H          2.90603       -0.32062        0.91177
H          2.93450        1.10688       -0.11271
H          2.64734       -1.79738       -1.07015
H          3.01849       -0.85332       -3.39464
H          2.89856        0.77464       -2.73203
H          0.81026       -1.29161       -2.71474
H          0.90744       -0.03704       -3.75133
H          4.99803        0.16721       -1.31091
H          4.74338       -2.40289        0.34989
H          4.98481       -0.75667        0.97422
H          6.26066       -1.53462        0.06038
H          4.83338       -2.64092       -2.14799
H          6.13993       -1.67361       -2.25711
