21

C          0.89094        0.18951       -0.11532
C          2.42003        0.13730       -0.00968
C          2.96866        1.47554       -0.34613
C          3.41223        2.55883       -0.61632
C          2.95290       -0.38879        1.37286
C          2.50497        0.48765        2.55587
C          2.48865       -1.83504        1.62374
N          4.43281       -0.42728        1.39090
H          0.58590        0.53080       -1.11223
H          0.45352        0.88634        0.60732
H          0.44078       -0.79514        0.03764
H          2.76847       -0.55751       -0.78768
H          3.80354        3.52218       -0.85033
H          1.41546        0.48881        2.66486
H          2.83277        1.52709        2.44418
H          2.91836        0.11709        3.50209
H          1.40225       -1.89651        1.74426
H          2.93098       -2.24237        2.54158
H          2.77467       -2.49626        0.79758
H          4.79305        0.51899        1.25662
H          4.77083       -0.96239        0.59140
