19

C          1.06496       -0.06127       -0.09047
C          2.56408       -0.09150       -0.00925
C          3.19259        0.02880        1.34949
C          3.31025       -0.23333       -1.12016
N          4.67611       -0.30652       -1.07442
C          5.29312       -0.28463       -2.21293
N          6.65999       -0.37233       -2.38647
N          7.36986       -0.97763       -1.31975
H          0.60541        0.04253        0.89738
H          0.68554       -0.99080       -0.52901
H          0.72671        0.78293       -0.69997
H          2.44072        0.10054        2.14197
H          3.81300        0.92931        1.40665
H          3.81242       -0.84680        1.56942
H          2.80961       -0.31825       -2.08391
H          4.77187       -0.18253       -3.18302
H          6.98000       -0.60150       -3.32721
H          6.75050       -0.98183       -0.49400
H          8.15044       -0.37699       -1.04343
