25

C          0.98604        0.00270        0.03426
C          2.50515        0.04658       -0.04339
C          3.10125        0.75434        1.17630
C          4.64597        0.77598        1.19426
C          5.21776        1.53008       -0.01203
C          5.18101        1.42697        2.49019
N          4.77601        0.67105        3.67668
C          5.25511        1.30554        4.89620
H          0.57591       -0.50208       -0.84590
H          0.56755        1.01375        0.07177
H          0.65290       -0.54048        0.92423
H          2.78735        0.56378       -0.96580
H          2.89343       -0.97641       -0.10680
H          2.73438        0.24470        2.07571
H          2.72030        1.78251        1.22189
H          5.01220       -0.25840        1.14661
H          4.83847        2.55680       -0.05382
H          4.96509        1.03308       -0.95311
H          6.31099        1.57561        0.04060
H          4.80664        2.45618        2.55753
H          6.27639        1.47451        2.44560
H          5.14623       -0.27673        3.61826
H          4.84168        2.31309        5.00675
H          6.34807        1.36171        4.91851
H          4.92996        0.72088        5.76222
