21

C          0.96746        0.00315        0.04935
C          2.48698       -0.03086        0.03139
C          3.79041       -0.06004        0.01598
C          5.30993       -0.09405       -0.00198
N          5.82757       -0.65994        1.23590
C          7.29490       -0.76446        1.23171
C          7.97669        0.60647        1.18757
C          7.73169       -1.51124        2.49249
H          0.57736       -0.94774        0.42280
H          0.58600        0.17181       -0.96153
H          0.61997        0.81041        0.70006
H          5.64545        0.93951       -0.13545
H          5.63238       -0.67839       -0.87141
H          5.42260       -1.58928        1.35201
H          7.62232       -1.35128        0.36440
H          7.60235        1.26578        1.97827
H          7.82353        1.10514        0.22524
H          9.05802        0.50493        1.32132
H          7.41798       -0.98432        3.40097
H          8.82243       -1.61328        2.52354
H          7.30674       -2.52083        2.52012
