22

C          0.98399       -0.24028        0.00344
C          2.50950       -0.11080        0.07855
C          2.88544        0.81981        1.25118
C          4.39334        1.02908        1.39516
N          4.67218        1.92604        2.51208
C          3.14446       -1.47180        0.23824
C          3.02105       -2.55703       -0.80554
N          4.27250       -1.83233       -0.62448
H          0.51638        0.74165       -0.12862
H          0.57715       -0.69354        0.91370
H          0.68106       -0.86760       -0.84176
H          2.84794        0.35579       -0.85581
H          2.48678        0.40904        2.18849
H          2.39792        1.79274        1.10175
H          4.81069        1.45088        0.47447
H          4.90053        0.07879        1.58916
H          4.28427        2.84793        2.31895
H          5.67941        2.05130        2.59971
H          3.20181       -1.80277        1.27017
H          2.46923       -2.36643       -1.71668
H          3.02154       -3.58585       -0.46575
H          4.40383       -1.16204       -1.38324
