15

C          0.95033        0.03582       -0.07906
C          2.47033        0.03582       -0.07906
C          3.77418        0.03582       -0.07906
C          5.29418        0.03582       -0.07906
C          5.79272       -1.34042        0.27883
C          6.55734       -1.61986        1.34530
C          5.80084        0.44311       -1.45303
N          6.22116        0.78100       -2.59285
H          0.57718        0.70247        0.70335
H          0.57725       -0.97512        0.10707
H          0.57723        0.38006       -1.04763
H          5.63990        0.77890        0.65000
H          5.50298       -2.15558       -0.38310
H          6.87799       -0.85230        2.04377
H          6.88147       -2.63801        1.54349
