21

C          1.09811       -0.23802       -0.12353
C          2.61115       -0.09237       -0.05989
C          3.09100        1.27720        0.45741
C          2.57363        1.58802        1.88129
N          2.98499        2.91066        2.36740
C          4.61100        1.27720        0.45741
C          5.91486        1.27720        0.45741
C          7.43486        1.27720        0.45741
H          0.83277       -1.16039       -0.65034
H          0.64051        0.60156       -0.65526
H          0.66122       -0.29824        0.87785
H          3.01526       -0.25203       -1.06834
H          3.01939       -0.89828        0.56389
H          2.74690        2.05978       -0.23117
H          2.93388        0.82786        2.58541
H          1.47983        1.56248        1.90174
H          4.00391        2.97724        2.32703
H          2.73665        2.99781        3.35154
H          7.80801        1.21732       -0.56874
H          7.80792        0.41847        1.02241
H          7.80788        2.19585        0.91869
