21

C          2.95842        0.25652       -1.51042
C          2.66305        0.13067       -0.03994
C          1.79150        0.95199        0.57034
C          3.36601       -0.98250        0.69680
N          4.81318       -0.79503        0.65024
C          5.50085       -1.87733        1.34463
C          6.97835       -1.65247        1.25605
C          7.79237       -1.51061        2.31068
H          2.36802        1.05047       -1.98027
H          2.72288       -0.68021       -2.02583
H          4.01442        0.49089       -1.67682
H          1.28033        1.74142        0.02682
H          1.56289        0.85755        1.62770
H          3.08928       -1.93607        0.22958
H          3.02745       -1.02302        1.74015
H          5.03702        0.08368        1.11587
H          5.27218       -2.83933        0.87075
H          5.17836       -1.93278        2.39133
H          7.40084       -1.61318        0.25382
H          7.41962       -1.54372        3.32939
H          8.85714       -1.35249        2.16979
