20

C          1.06203        0.07503       -0.08362
C          2.57954        0.07505        0.00354
C          3.15215        1.47211       -0.21824
C          4.67092        1.44319       -0.11482
N          5.22443        1.53604        1.05627
N          5.34877        1.29700       -1.31808
C          6.67429        1.93125       -1.41454
C          6.55161        0.45007       -1.30844
H          0.67164       -0.93427        0.08097
H          0.72564        0.41248       -1.06921
H          0.62587        0.73500        0.67311
H          2.98603       -0.61868       -0.74218
H          2.88602       -0.30584        0.98519
H          2.75699        2.17205        0.52688
H          2.86749        1.84849       -1.20747
H          4.50740        1.63259        1.78247
H          6.98848        2.49536       -0.54705
H          6.85599        2.37464       -2.38242
H          6.77405       -0.03251       -0.36662
H          6.65341       -0.14451       -2.20414
