19

C          1.85826        0.37364       -1.95917
C          2.76142        0.19329       -0.98483
C          3.57652        1.26612       -0.46910
C          4.48212        1.10177        0.50856
C          5.28253        2.23961        1.08223
N          6.72989        1.99073        1.09458
C          7.36086        1.87172       -0.21673
C          7.50036        3.13158        0.58871
H          1.25428       -0.45513       -2.31067
H          1.69569        1.34121       -2.42655
H          2.88041       -0.79462       -0.54986
H          3.42377        2.25452       -0.89798
H          4.64778        0.12512        0.95556
H          4.97362        2.35765        2.12724
H          5.01508        3.18004        0.58717
H          6.73271        1.87659       -1.09807
H          8.21875        1.21109       -0.26548
H          6.98350        4.01530        0.23115
H          8.44156        3.32286        1.08685
