21

C          0.91262       -0.08319       -0.02060
C          2.45304       -0.08990        0.04376
C          2.98727       -0.69725       -1.26625
C          2.97379        1.35655        0.25893
N          2.58799        2.30227       -0.79175
C          2.96841       -0.95240        1.21805
N          2.12166       -1.58033        2.07927
N          4.23306       -1.13607        1.44107
H          0.54376        0.52230       -0.85593
H          0.47744        0.32122        0.90034
H          0.51416       -1.09463       -0.16118
H          2.57198       -0.19424       -2.14620
H          2.72445       -1.75920       -1.33882
H          4.07863       -0.62802       -1.33028
H          4.06821        1.36613        0.33305
H          2.59913        1.73782        1.21699
H          3.03030        2.04264       -1.67273
H          2.95094        3.22668       -0.55856
H          1.24369       -1.92435        1.71339
H          2.61123       -2.26619        2.64596
H          4.81099       -0.64222        0.75617
