15

C          1.69824        0.68640       -0.91755
C          2.55388        0.02044        0.14880
C          3.07617        1.01912        1.14150
C          4.38160        1.23501        1.35711
C          4.83273        2.18390        2.31310
C          5.23118        2.98157        3.11788
C          5.74969        3.99744        4.14264
N          6.14614        4.76530        4.91694
H          1.33377       -0.06095       -1.62981
H          2.27119        1.43464       -1.47559
H          0.82796        1.18276       -0.47503
H          3.37697       -0.51749       -0.33616
H          1.95465       -0.72622        0.68223
H          2.33111        1.57373        1.70967
H          5.13407        0.68290        0.80123
