15

C          1.13025       -0.02254        0.01089
C          2.63286       -0.05604        0.01440
C          3.36515        0.76701       -1.02151
C          3.00079        0.29766       -2.42057
N          2.69852       -0.09171       -3.58119
C          3.28535       -0.78425        0.93197
C          4.80535       -0.78425        0.93197
C          6.10921       -0.78425        0.93197
H          0.74011        0.66890       -0.74260
H          0.75058        0.30986        0.98330
H          0.72569       -1.01592       -0.20623
H          4.45425        0.75447       -0.93684
H          3.06243        1.81634       -0.91705
H          2.78760       -1.38040        1.69004
H          7.17466       -0.79018        0.93384
