20

C          1.02343       -0.11312       -0.04360
C          2.55246       -0.08238        0.03695
C          3.06009       -0.37192        1.45512
C          2.61040        0.68063        2.43321
N          1.83821        0.36309        3.42326
N          1.53622        1.40400        4.22903
C          3.12163       -1.10695       -0.91837
C          3.93971       -0.81927       -1.93844
H          0.57966        0.67481        0.57383
H          0.62212       -1.07505        0.29524
H          0.68293        0.04946       -1.07272
H          2.88128        0.92304       -0.25891
H          4.15707       -0.36449        1.46834
H          2.72823       -1.35786        1.80138
H          2.97313        1.71148        2.26564
H          0.92374        1.08186        4.98223
H          1.00989        2.12883        3.73635
H          2.83890       -2.14657       -0.75389
H          4.25678        0.19621       -2.15266
H          4.31239       -1.60698       -2.58705
