18

C          1.05775        0.05720       -0.05825
C          2.57775        0.05720       -0.05825
C          3.88161        0.05720       -0.05825
C          5.40161        0.05720       -0.05825
N          5.93477       -0.91884       -0.96693
C          7.26291       -1.14660       -1.17892
C          8.33666       -0.36554       -0.45184
N          7.65933       -2.04657       -2.01689
H          0.68464       -0.72541       -0.72470
H          0.68459        1.02564       -0.40280
H          0.68459       -0.12867        0.95271
H          5.73964       -0.15017        0.96325
H          5.73970        1.06136       -0.33771
H          5.25382       -1.46598       -1.47648
H          7.92954        0.37532        0.23810
H          8.96314        0.15113       -1.18521
H          8.96316       -1.06028        0.11570
H          6.85022       -2.50200       -2.44096
