21

C          0.88161       -1.05274       -0.25396
C          2.37304       -1.10823       -0.22061
C          3.16598       -0.42797       -1.06958
C          4.68590       -0.40120       -1.10145
C          5.14383        1.04863       -0.85386
N          5.25966       -1.24076       -0.04469
C          5.16914       -0.98590       -2.41256
C          5.92490       -0.39977       -3.35511
H          0.46985       -1.70011        0.52750
H          0.49458       -1.40300       -1.21574
H          0.52484       -0.03592       -0.06398
H          2.81176       -1.74951        0.54010
H          2.68506        0.18807       -1.83048
H          4.77110        1.42872        0.10570
H          4.77638        1.72700       -1.63393
H          6.23769        1.13106       -0.83248
H          4.99729       -0.84596        0.85637
H          6.27386       -1.16885       -0.09087
H          4.86111       -2.01605       -2.59047
H          6.28768        0.61829       -3.26776
H          6.20716       -0.94795       -4.24935
