19

C          1.58702       -0.24432       -1.23568
C          2.44026        0.10066       -0.02517
C          2.99844        1.49028       -0.12129
C          4.31052        1.75731       -0.13426
C          4.81718        3.18762       -0.22309
C          5.25180        4.41455       -0.29929
C          5.75846        5.84487       -0.38813
N          5.13138        6.64689        0.64867
H          1.19429       -1.26204       -1.14317
H          2.17086       -0.18944       -2.16064
H          0.73566        0.43840       -1.32801
H          3.24375       -0.63909        0.07006
H          1.83028        0.02819        0.88237
H          2.28210        2.30777       -0.16777
H          5.06727        0.98130       -0.08094
H          5.52197        6.25106       -1.37687
H          6.84544        5.85311       -0.26173
H          4.12053        6.60445        0.53059
H          5.39674        7.62087        0.52321
