18

C          1.08461       -0.03778       -0.04936
C          2.60249       -0.03217       -0.00903
C          3.09697        0.06424        1.37001
C          3.53158        0.15298        2.59609
C          4.03824        0.25643        4.02542
N          2.89905        0.41745        4.92901
N          3.18100        0.38963        6.25609
C          2.13192        0.37467        7.00996
H          0.73047       -0.11246       -1.08203
H          0.67271        0.87898        0.38663
H          0.67675       -0.88722        0.51156
H          2.97908        0.81156       -0.59762
H          2.98263       -0.94754       -0.47548
H          4.71949        1.10943        4.10991
H          4.59022       -0.65874        4.26720
H          2.17893       -0.25676        4.66322
H          2.25176        0.34638        8.10433
H          1.09764        0.38822        6.62403
