17

C          2.99199        1.34539       -0.41910
C          2.58015       -0.06238       -0.00002
C          3.10918       -0.46153        1.38730
C          2.60469       -1.84747        1.78353
C          4.62918       -0.46153        1.38730
C          5.93303       -0.46153        1.38730
C          7.46800       -0.46196        1.38550
N          8.62896       -0.46243        1.38389
H          2.58777        1.57580       -1.40982
H          4.08027        1.44963       -0.47729
H          2.61233        2.09136        0.28584
H          2.93398       -0.77213       -0.75861
H          1.48461       -0.11557        0.00003
H          2.76604        0.26632        2.13276
H          2.91156       -2.60810        1.05607
H          1.51232       -1.86049        1.84908
H          3.00502       -2.14540        2.75936
