19

C          1.24002       -0.15067        1.43013
C          2.68563       -0.10464        0.96268
C          3.92567       -0.06515        0.56170
C          5.37127       -0.01912        0.09425
C          6.14536        1.28912        0.06913
N          6.48377        1.77060        1.41370
C          7.62362        2.70032        1.40267
C          6.21706        3.19998        1.59113
H          0.64080        0.56532        0.86080
H          1.18312        0.10298        2.49233
H          0.83154       -1.15411        1.28155
H          5.92654       -0.76292        0.68170
H          5.36229       -0.41131       -0.93244
H          5.61387        2.02741       -0.54356
H          7.08478        1.06219       -0.45710
H          8.12383        2.92009        0.45938
H          8.27165        2.65882        2.27242
H          5.75636        3.74979        0.79083
H          5.91176        3.49133        2.58862
