24

C          0.97941       -0.28519        0.11069
C          2.48094       -0.09666       -0.07774
C          2.92150        0.91958       -1.17924
C          2.41145        0.44156       -2.55559
C          2.34068        2.35330       -0.90712
N          2.80856        3.00253        0.32164
N          4.40713        0.86797       -1.14398
C          5.10094        1.77092       -2.04926
H          0.79907       -1.04790        0.87637
H          0.49250       -0.62811       -0.80587
H          0.49317        0.63434        0.44596
H          2.90654       -1.08445       -0.30549
H          2.90758        0.19441        0.89111
H          1.31783        0.40502       -2.58814
H          2.78628       -0.55985       -2.79562
H          2.71871        1.11722       -3.36093
H          1.24568        2.31060       -0.87829
H          2.58774        3.01613       -1.74395
H          2.61508        2.40796        1.12356
H          2.30734        3.87668        0.46367
H          4.72319       -0.08444       -1.31593
H          4.86644        2.82121       -1.85326
H          4.89693        1.54211       -3.09858
H          6.18006        1.65834       -1.90108
