16

C          1.06436       -0.06897       -0.03318
C          2.58436       -0.06897       -0.03318
C          3.88821       -0.06897       -0.03318
C          5.40821       -0.06897       -0.03318
C          6.59870       -0.06839       -0.59747
N          7.18233       -0.08487       -1.81029
C          8.52129       -0.09234       -2.04432
N          9.10971       -0.10704       -3.17974
H          0.69120        0.83812       -0.51669
H          0.69120       -0.10379        0.99414
H          0.69120       -0.94125       -0.57700
H          5.57839       -0.05983        1.05573
H          7.39927       -0.06765        0.16627
H          6.57688       -0.09297       -2.60865
H          9.14346       -0.08411       -1.11216
H          8.39549       -0.11374       -3.90099
