17

C          1.05657       -0.12996       -0.08908
C          2.56104        0.07627        0.05190
C          3.05095        1.26902        0.86629
C          2.22512        2.14587        1.46425
C          4.50046        1.46338        0.99896
C          5.41142        0.65508        0.44468
C          6.91993        0.80918        0.54972
N          8.17137        0.93702        0.63686
H          0.86079       -1.02095       -0.69660
H          0.58206        0.72136       -0.58688
H          0.58233       -0.28235        0.88534
H          2.96976        0.15589       -0.96478
H          2.97024       -0.84135        0.49513
H          1.14508        2.05906        1.40198
H          2.59593        2.99014        2.03711
H          4.83919        2.31866        1.58123
H          5.13653       -0.21055       -0.14650
