21

C          0.10197       -0.45735        0.56464
C          1.22380       -0.13550        1.49725
C          2.20669        0.72747        1.19604
C          3.27766        1.14160        2.16971
C          4.70659        0.91600        1.65547
N          5.63531        1.48131        2.64814
C          7.04233        1.35852        2.29088
C          6.32768        2.67867        2.17937
H         -0.58917       -1.16071        1.04077
H          0.47228       -0.91784       -0.35537
H         -0.46509        0.44645        0.31827
H          1.19278       -0.60566        2.47880
H          2.21733        1.21047        0.22126
H          3.12825        2.20871        2.37734
H          3.15061        0.61434        3.12454
H          4.82292        1.35712        0.65614
H          4.88983       -0.16079        1.55151
H          7.30256        0.82540        1.38668
H          7.72275        1.22163        3.12415
H          6.11935        3.06479        1.18884
H          6.50962        3.43250        2.93609
