20

C          1.09580       -0.16014        0.10079
C          2.60229        0.06900        0.06263
C          3.06007        1.47920       -0.21153
C          2.28387        2.55485       -0.42626
C          4.53539        1.69220       -0.29976
N          5.39240        0.73606       -0.11036
N          6.67388        1.06780       -0.35247
C          7.70919        0.11853        0.01099
H          0.88346       -1.21406        0.30886
H          0.62963        0.09009       -0.85812
H          0.62206        0.43702        0.88667
H          3.02147       -0.59067       -0.70757
H          3.01913       -0.25496        1.02403
H          1.20009        2.48778       -0.41373
H          2.69510        3.53760       -0.63421
H          4.85817        2.71720       -0.56080
H          6.94820        2.03771       -0.19891
H          7.30133       -0.88023        0.20165
H          8.25016        0.44306        0.90538
H          8.42228        0.03589       -0.81386
