18

C          0.91141       -0.10630        0.02622
C          2.42708        0.01473        0.01594
C          2.93125        1.26804       -0.70917
C          2.45488        2.52802       -0.01719
N          1.61445        3.32600       -0.59999
N          1.30640        4.41889        0.13034
C          4.45125        1.26804       -0.70917
C          5.75510        1.26804       -0.70917
H          0.61546       -1.07988        0.43055
H          0.49909       -0.01854       -0.98370
H          0.45811        0.66587        0.65531
H          2.84306       -0.87614       -0.47611
H          2.79289       -0.00602        1.05113
H          2.57681        1.27064       -1.74676
H          2.84895        2.72249        0.99908
H          0.56678        4.94804       -0.33694
H          0.95459        4.18945        1.06096
H          6.82097        1.27111       -0.71447
