16

C          0.92800        0.01725       -0.06721
C          2.44800        0.01725       -0.06721
C          3.75185        0.01725       -0.06721
C          5.19412        0.02719       -0.10849
N          5.66095        0.30778       -1.27349
N          5.87755       -0.24911        1.03868
C          7.23937       -0.28702        1.19606
C          7.92701       -0.55509        2.30910
H          0.55489        0.21809       -1.07533
H          0.55487        0.78988        0.61077
H          0.55487       -0.95621        0.26290
H          4.90480        0.46934       -1.94427
H          5.33338       -0.44918        1.86935
H          7.77660       -0.06481        0.27347
H          7.44219       -0.78197        3.25107
H          9.01312       -0.55072        2.29096
