25

C          1.11172        0.18571       -0.23107
C          2.61053        0.11571        0.03916
C          3.04295       -0.28235        1.48531
C          2.52808        0.78324        2.48190
C          2.45336       -1.65704        1.91588
C          2.93785       -2.86538        1.12345
C          4.60313       -0.29040        1.49628
N          5.19970       -0.64908        2.78023
H          0.93856        0.57263       -1.24141
H          0.59796        0.85597        0.46253
H          0.64630       -0.80207       -0.17554
H          3.03659        1.10035       -0.19753
H          3.05228       -0.57891       -0.68533
H          1.43478        0.82957        2.49829
H          2.90360        1.77941        2.22292
H          2.84196        0.56444        3.50815
H          1.35873       -1.62276        1.85748
H          2.68035       -1.83912        2.97454
H          2.78791       -2.73911        0.04858
H          2.38272       -3.75743        1.43353
H          3.99790       -3.06435        1.30779
H          4.97781        0.70103        1.21117
H          4.97838       -0.98789        0.73868
H          4.97545        0.06199        3.47412
H          6.21556       -0.64132        2.68981
