14

C          1.07594       -0.06488       -0.00488
C          2.59594       -0.06488       -0.00488
C          3.89979       -0.06488       -0.00488
C          5.43431       -0.05790       -0.00228
C          6.63580       -0.04878        0.00113
C          8.07036       -0.03150        0.00759
N          8.71769        1.06997        0.41895
N          8.63097       -1.11139       -0.39572
H          0.70276       -0.97481        0.47326
H          0.70276       -0.02400       -1.03197
H          0.70276        0.80417        0.54407
H          8.23667        1.90068        0.72919
H          9.72813        1.05547        0.41354
H          7.93250       -1.81410       -0.65816
