17

C          1.02139        0.06477       -0.07313
C          2.54139        0.06477       -0.07313
C          3.84524        0.06477       -0.07313
C          5.36524        0.06477       -0.07313
C          6.66910        0.06477       -0.07313
C          8.18910        0.06477       -0.07313
C          8.86509        0.75070        1.11134
N          8.71885        0.02821        2.37082
H          0.64821       -0.17505        0.92641
H          0.64821       -0.68095       -0.78058
H          0.64821        1.05030       -0.36521
H          8.53046       -0.97513       -0.15130
H          8.51146        0.56353       -0.99594
H          8.50399        1.77686        1.22701
H          9.94025        0.81334        0.89324
H          7.73222        0.00728        2.62036
H          8.98981       -0.94480        2.24535
