20

C          0.91787        0.03976        0.00979
C          2.44811       -0.04757       -0.08992
C          2.98017       -1.31542       -0.73482
C          2.27362       -2.33440       -1.25274
N          3.05088        1.18161       -0.67326
C          2.94877        1.27102       -2.13506
N          2.94268        2.30231        0.10682
C          3.43541        3.40564       -0.34642
H          0.51397       -0.83121        0.54148
H          0.44121        0.08711       -0.97431
H          0.60896        0.92343        0.57939
H          2.81406       -0.10036        0.94588
H          4.06624       -1.37755       -0.77682
H          1.18938       -2.35085       -1.25454
H          2.77996       -3.18374       -1.69929
H          2.75269        0.31792       -2.63483
H          3.90587        1.62376       -2.53769
H          2.16360        1.96745       -2.44486
H          3.35729        4.31743        0.26799
H          3.93000        3.52226       -1.32398
