23

C          2.29606        0.86050       -1.07168
C          2.47773       -0.06088        0.12695
C          3.05700       -1.41725       -0.24551
C          2.08712       -2.54801       -0.54426
N          0.67296       -2.20397       -0.53581
C          4.40180       -1.63462       -0.29618
C          5.45536       -0.57344       -0.06650
C          5.02959       -2.97731       -0.60286
H          1.94348        1.84191       -0.73656
H          1.56072        0.46165       -1.77701
H          3.23808        1.01206       -1.60943
H          1.52437       -0.17128        0.65289
H          3.11611        0.43537        0.86659
H          2.23923       -3.35353        0.18576
H          2.31192       -2.94956       -1.53954
H          0.38029       -2.06443        0.43022
H          0.14234       -3.00737       -0.86625
H          5.05724        0.42993        0.09330
H          6.11583       -0.51135       -0.93928
H          6.06343       -0.83176        0.80601
H          4.30774       -3.77628       -0.78662
H          5.65274       -3.29620        0.23922
H          5.66382       -2.90349       -1.49262
