25

C          0.95821        0.08605        0.07264
C          2.47820        0.07831        0.06441
C          3.03186       -0.77261       -1.07968
C          4.56204       -0.76974       -1.07310
N          5.06943       -1.59322       -2.17116
C          6.53268       -1.59735       -2.18649
C          7.04022       -2.45669       -3.34460
C          8.56084       -2.48660       -3.38206
H          0.58762        0.70163        0.89836
H          0.56122       -0.92624        0.19854
H          0.56291        0.49740       -0.86157
H          2.84040       -0.30781        1.02445
H          2.84183        1.10833       -0.02864
H          2.66158       -0.38358       -2.03665
H          2.66156       -1.80113       -0.98359
H          4.91989       -1.16503       -0.11509
H          4.92538        0.26016       -1.17301
H          4.71830       -1.23513       -3.05905
H          6.91429       -2.00202       -1.24152
H          6.91349       -0.57478       -2.29661
H          6.66723       -2.06449       -4.29853
H          6.66426       -3.48225       -3.24563
H          8.96946       -1.47964       -3.51467
H          8.90833       -3.10660       -4.21426
H          8.96783       -2.90292       -2.45496
