17

C          1.25808       -0.39744       -0.58334
C          2.56775        0.14160       -0.03652
N          2.97860        1.35537       -0.71439
C          2.65927        2.63571       -0.35629
C          3.24356        3.43518       -1.29978
N          3.17447        4.77207       -1.34389
C          3.90621        2.55750       -2.17666
N          3.74327        1.27784       -1.82325
H          0.97650       -1.31682       -0.06112
H          1.33840       -0.62101       -1.65242
H          0.44921        0.32988       -0.45537
H          3.37049       -0.59484       -0.15250
H          2.47439        0.37157        1.03046
H          2.05410        2.85166        0.51145
H          2.55244        5.29518       -0.73572
H          3.50706        5.30073       -2.14465
H          4.49407        2.78927       -3.05384
