13

C          6.00771        0.07094       -1.89177
C          5.03550        0.01026       -1.02508
C          3.90213       -0.06048       -0.01470
N          4.37005       -0.55680        1.25732
C          4.86907        0.17801        2.28674
N          5.16008       -0.62058        3.28804
N          4.85091       -1.90600        2.90034
C          4.38172       -1.85078        1.67498
H          6.80727        0.11800       -2.59583
H          3.11357       -0.72832       -0.37680
H          3.47173        0.93414        0.14171
H          5.00043        1.25072        2.26611
H          4.05247       -2.68985        1.07869
