18

C          2.77211       -0.41228        1.55853
C          2.60807        0.01291        0.10477
N          3.19316       -0.96923       -0.81950
C          3.50946       -0.33972       -2.11473
C          3.91545       -1.34384       -3.15247
C          3.68129       -2.64937       -2.98772
C          2.94189       -3.00948       -1.76028
N          2.66768       -2.22971       -0.76179
H          2.35813        0.35460        2.22152
H          3.82962       -0.54136        1.81225
H          2.24905       -1.35078        1.76833
H          3.09710        0.98793       -0.01181
H          1.54403        0.15270       -0.12233
H          4.34213        0.36026       -1.97188
H          2.65125        0.22423       -2.49746
H          4.39867       -0.97974       -4.05309
H          3.93497       -3.41519       -3.70519
H          2.57626       -4.04892       -1.72626
