17

C          0.97722       -0.13793       -0.03280
C          2.49623       -0.09273       -0.02532
C          3.07339       -0.44335       -1.39525
N          4.51862       -0.38906       -1.42073
C          5.31796        0.42801       -2.16267
C          6.58971        0.05184       -1.80441
N          6.52579       -0.96167       -0.89104
N          5.24667       -1.23532       -0.67156
H          0.58644        0.10672        0.95986
H          0.61595       -1.13537       -0.30320
H          0.56624        0.58256       -0.74696
H          2.86970       -0.79196        0.73247
H          2.82959        0.90748        0.27678
H          2.70160        0.25356       -2.15591
H          2.78540       -1.45592       -1.69871
H          4.93624        1.16919       -2.84834
H          7.53524        0.44366       -2.14900
