20

C          0.85989        0.09972       -0.04160
C          2.39904        0.05265        0.00973
C          2.90559       -1.05509       -0.93147
N          2.87716        1.36191       -0.51119
C          2.95106       -0.16685        1.47370
N          2.64274        0.96842        2.35593
C          2.46564       -1.41173        2.09241
C          2.08099       -2.43807        2.58482
H          0.50199        0.26466       -1.06540
H          0.45365        0.90835        0.57609
H          0.41688       -0.84033        0.30384
H          2.55368       -0.89961       -1.95814
H          2.55016       -2.04215       -0.61657
H          4.00081       -1.08692       -0.95652
H          2.57326        1.46938       -1.47972
H          3.89769        1.35688       -0.54252
H          4.04633       -0.22276        1.41593
H          1.63413        0.99654        2.49784
H          2.84088        1.81010        1.80654
H          1.74375       -3.34884        3.02202
