18

C          3.17116        0.77882       -1.23221
C          2.53551        0.09798       -0.01265
C          2.83923       -1.38864       -0.10273
N          3.09120       -2.62192       -0.17745
N          3.06877        0.67011        1.23884
C          2.64712        2.08478        1.43128
C          2.42230        1.74118        2.91567
C          2.19792        0.30927        2.39603
H          2.82961        0.30837       -2.16211
H          4.26484        0.70414       -1.21087
H          2.90329        1.83911       -1.28636
H          1.44649        0.22330       -0.08429
H          1.73169        2.38888        0.90751
H          3.43018        2.82514        1.23991
H          1.57077        2.22380        3.40024
H          3.31329        1.85506        3.54399
H          1.14609        0.09019        2.16050
H          2.58892       -0.48625        3.03554
