15

C          0.86555       -0.08372        0.37925
C          2.22650        0.14395        0.95201
C          3.38719        0.23643        0.28118
N          3.64180       -0.02629       -1.06448
C          4.73092        0.40751       -1.78630
N          4.66835       -0.01616       -3.02532
N          3.53162       -0.77278       -3.14465
C          2.94105       -0.78200       -1.97006
H          0.10530        0.17954        1.12229
H          0.71243       -1.13115        0.10563
H          0.69577        0.56018       -0.49007
H          2.24300        0.36458        2.01999
H          4.26438        0.57477        0.83104
H          5.49613        1.04666       -1.37167
H          2.05696       -1.35185       -1.72588
