17

C          2.85765        0.76456       -1.31876
C          2.46018       -0.02693       -0.07548
C          3.01207       -1.45874       -0.14234
N          2.60246       -2.26308        0.99590
C          1.44075       -2.95472        1.07068
N          1.03069       -3.59843        2.09998
C          3.00483        0.66987        1.16074
N          3.45666        1.24793        2.18628
H          2.44939        0.30119       -2.22292
H          3.94715        0.81823       -1.42703
H          2.48127        1.79225       -1.26590
H          1.36623       -0.05183        0.00055
H          4.10823       -1.44408       -0.17264
H          2.68034       -1.94322       -1.06901
H          3.16911       -2.18818        1.83640
H          0.83405       -2.93510        0.14948
H          1.71363       -3.52114        2.85748
