22

C          1.03443        0.16804       -0.35055
C          2.52762        0.00415       -0.08593
C          2.95732       -0.53353        1.31208
N          2.42876        0.34902        2.37138
C          2.46360       -1.99838        1.57230
N          1.01183       -2.14986        1.76263
C          4.48286       -0.55198        1.33478
C          5.30695        0.08746        2.17865
H          0.88681        0.66921       -1.31412
H          0.54246        0.77809        0.41228
H          0.52745       -0.79744       -0.41468
H          2.99854        0.98161       -0.24797
H          2.93283       -0.65447       -0.86666
H          1.41199        0.31699        2.32482
H          2.68187        1.30866        2.14116
H          2.94806       -2.38995        2.47781
H          2.77517       -2.64741        0.74501
H          0.75778       -1.64990        2.61528
H          0.81195       -3.13144        1.95194
H          4.94747       -1.16737        0.56273
H          4.93529        0.71122        2.98511
H          6.38390       -0.01084        2.08347
