20

C          1.90051       -0.46380        1.35495
C          2.44143       -0.01355       -0.00524
N          3.57600        0.88577        0.19571
C          2.83641       -1.13937       -0.91063
C          2.79207       -2.46136       -0.70386
C          3.26589       -3.19863       -1.90107
N          3.37506       -2.18642       -2.96443
C          3.36235       -0.87214       -2.28345
H          1.59861        0.39699        1.96220
H          2.64882       -1.02789        1.92414
H          1.01709       -1.10096        1.23285
H          1.64838        0.55433       -0.50662
H          4.31037        0.38200        0.69275
H          3.29768        1.64741        0.81266
H          2.47131       -2.95413        0.20112
H          2.55743       -3.98113       -2.19068
H          4.24016       -3.65952       -1.71023
H          2.52670       -2.23980       -3.52626
H          2.72937       -0.17110       -2.83693
H          4.38163       -0.47304       -2.24335
