19

C          0.90093       -0.52726       -0.60124
C          2.42039       -0.59623       -0.59187
N          2.97549        0.69885       -0.97972
C          4.43249        0.69985       -0.98682
C          4.95659        2.07472       -1.31060
C          5.71908        2.03518       -2.41605
C          5.75805        0.68507       -2.91440
C          5.02413       -0.10171       -2.11452
H          0.47990       -1.50147       -0.33290
H          0.52408       -0.26171       -1.59548
H          0.52996        0.21129        0.11638
H          2.72881       -1.38001       -1.29163
H          2.76297       -0.87948        0.40988
H          2.65421        1.40958       -0.32544
H          4.84002        0.37536       -0.02046
H          4.75294        2.96181       -0.73105
H          6.21956        2.87007       -2.88161
H          6.28564        0.37648       -3.80319
H          4.87718       -1.16078       -2.25599
