18

C          1.40828        0.41193       -0.87520
C          2.28796        0.04011        0.06695
C          3.01249        0.98686        0.98233
N          2.68017        0.64356        2.34252
C          1.60171        1.12194        3.00400
N          1.26421        0.79857        4.19956
C          4.50381        0.84615        0.83424
C          5.33827        1.84654        0.51832
H          0.92198       -0.32863       -1.50341
H          1.15072        1.45366       -1.04014
H          2.49889       -1.02043        0.18474
H          2.71569        2.02340        0.77651
H          3.23550       -0.07696        2.77898
H          0.99693        1.84900        2.43521
H          1.93700        0.12887        4.57727
H          4.92607       -0.14405        0.99302
H          4.97987        2.85704        0.34366
H          6.40619        1.67192        0.42727
