15

C          0.92989        0.10423        0.03359
C          2.42159        0.01671       -0.04191
C          3.20672        1.08607       -0.25114
N          4.59895        1.09223       -0.33193
C          5.40464        2.18275       -0.57563
N          6.66751        1.83382       -0.58540
N          6.72666        0.48636       -0.34285
C          5.49427        0.05819       -0.19515
H          0.53404       -0.76355        0.56979
H          0.49735        0.10858       -0.97104
H          0.60601        1.00179        0.57049
H          2.84177       -0.97781        0.08365
H          2.74938        2.06334       -0.38717
H          5.01730        3.17707       -0.74011
H          5.20313       -0.96101        0.00949
