22

C          1.01316        2.10760       -0.97922
C          2.53323        2.11430       -0.98477
C          3.10297        0.70813       -1.16566
C          4.60487        0.72684       -1.18979
C          5.36478       -0.55617       -1.39644
C          5.34800        0.48581       -2.48392
C          6.55869        1.26646       -2.74681
C          6.58128        2.52123       -3.21319
H          0.63003        3.12017       -0.81800
H          0.62604        1.46737       -0.18006
H          0.61946        1.74314       -1.93330
H          2.89283        2.54126       -0.04071
H          2.89257        2.77133       -1.78601
H          2.70895        0.26459       -2.08791
H          2.77162        0.07129       -0.33676
H          5.02128        1.41328       -0.45943
H          4.80402       -1.46937       -1.56194
H          6.26960       -0.70084       -0.81619
H          4.77078        0.24450       -3.37227
H          7.51187        0.77387       -2.55997
H          5.66132        3.05742       -3.42521
H          7.52046        3.03345       -3.39188
