22

C          1.23374        0.06400       -0.59684
C          2.63375       -0.08808       -0.00868
C          2.64720        0.32872        1.45843
N          2.99600       -1.50407       -0.11449
C          4.24563       -1.75174       -0.27655
N          4.79897       -2.99966       -0.41749
C          3.97084       -4.19431       -0.45621
C          6.22591       -3.20799       -0.58179
H          0.88735        1.10001       -0.52922
H          0.51179       -0.57443       -0.07473
H          1.22640       -0.22947       -1.65219
H          3.31930        0.55171       -0.57910
H          2.00346       -0.31959        2.06326
H          2.29912        1.36047        1.57523
H          3.65945        0.26548        1.87144
H          4.99916       -0.94344       -0.31142
H          2.90404       -3.97716       -0.34205
H          4.25683       -4.87782        0.34956
H          4.09996       -4.71172       -1.41283
H          6.78710       -2.26848       -0.54407
H          6.43221       -3.68328       -1.54638
H          6.60755       -3.85689        0.21294
