20

C          3.01500        0.97105        1.08195
C          2.51274       -0.10203        0.11504
C          3.08057        0.13725       -1.29620
C          2.55557       -0.84460       -2.31145
C          3.02762       -0.77478       -3.74115
C          3.46197       -1.91520       -2.86497
C          2.87057       -1.44034        0.62887
C          3.13882       -2.53418        1.04690
H          2.73125        1.97164        0.73931
H          4.10644        0.94203        1.18060
H          2.59006        0.82584        2.08189
H          1.41814       -0.03160        0.06849
H          4.17799        0.11129       -1.27291
H          2.79743        1.14542       -1.62496
H          1.50834       -1.08451       -2.16106
H          3.76689       -0.02962       -4.01066
H          2.30708       -0.98656       -4.52369
H          4.49832       -1.94087       -2.54662
H          3.03433       -2.89452       -3.04652
H          3.36638       -3.50746        1.41506
