22

C          0.93782        0.00608        0.10629
C          2.45914       -0.08563       -0.08426
C          2.96829       -1.41962        0.48726
N          2.72545       -0.06932       -1.53960
C          3.19138        1.12275        0.57659
N          2.96067        1.22042        2.02707
C          3.71226        2.31013        2.64787
C          2.23073        2.42372        2.42584
H          0.41910       -0.80960       -0.41238
H          0.54330        0.95203       -0.28284
H          0.66060       -0.06043        1.16414
H          2.50017       -2.27512       -0.01215
H          2.74403       -1.51011        1.55604
H          4.05305       -1.51640        0.36425
H          2.43879       -0.95858       -1.94809
H          3.72876        0.00254       -1.70311
H          2.90516        2.04397        0.04870
H          4.27176        1.00242        0.40959
H          4.37797        2.89793        2.02776
H          4.06353        2.12298        3.65516
H          1.87274        3.10364        1.66283
H          1.57803        2.31612        3.28383
