16

C          0.90568        0.02775        0.01825
C          2.42568        0.02775        0.01825
C          3.72953        0.02775        0.01825
C          5.16413        0.03317        0.05521
C          5.91141       -0.67089       -1.04462
C          5.92144        0.83344       -0.98003
C          7.14213        1.48848       -0.60379
C          8.16793        2.03582       -0.30366
H          0.53259       -0.30903       -0.95295
H          0.53255        1.03721        0.21214
H          0.53252       -0.64493        0.79548
H          5.59641       -0.02650        1.05029
H          5.34849       -1.13493       -1.84642
H          6.80964       -1.21336       -0.77143
H          5.33373        1.35504       -1.73030
H          9.08002        2.52140       -0.04464
