21

C          1.03652       -0.04192       -0.09506
C          2.54151       -0.08335       -0.02327
C          3.13501       -0.20948        1.35252
N          3.33687        1.11049        1.93322
C          3.26219       -0.02319       -1.16374
C          4.75851       -0.03592       -1.29706
C          5.26123        1.21010       -1.96755
C          6.00924        1.21464       -3.07792
H          0.57883       -0.10285        0.89796
H          0.66066       -0.88943       -0.67886
H          0.69336        0.88870       -0.55869
H          4.08109       -0.75730        1.33510
H          2.47050       -0.79279        1.99977
H          3.98066        1.62826        1.33574
H          3.81032        1.00791        2.82874
H          2.72338        0.05283       -2.10829
H          5.04374       -0.92651       -1.86856
H          5.25781       -0.11294       -0.32783
H          5.00810        2.15962       -1.49705
H          6.29558        0.29362       -3.57628
H          6.35696        2.14779       -3.51014
