20

C          0.97873       -0.37342        0.09937
C          2.43788        0.00375       -0.12532
C          2.97681        1.04050        0.88345
C          2.21346        2.39350        0.81073
C          3.04347        3.60623        0.49209
C          4.36862        3.55628        0.31202
C          5.09552        2.32173        0.43761
C          4.47602        1.16461        0.70380
H          0.70823       -1.21553       -0.54623
H          0.30345        0.45203       -0.14211
H          0.80291       -0.67227        1.13722
H          2.56026        0.37444       -1.15091
H          3.03394       -0.91567       -0.05258
H          2.81759        0.63047        1.89082
H          1.72517        2.56725        1.77868
H          1.40864        2.35006        0.06925
H          2.52433        4.55640        0.40248
H          4.93155        4.45487        0.07678
H          6.17434        2.35732        0.31548
H          5.06901        0.25904        0.80511
