14

C          4.63857        2.51730        0.82834
C          4.29381        1.32311        0.43451
C          3.89189       -0.06904       -0.02460
N          4.56791       -0.43805       -1.26712
C          4.16873       -1.76741       -1.72964
C          3.67462       -0.52392       -2.43343
C          4.17539       -0.26329       -3.75530
N          4.54601       -0.08086       -4.83968
H          4.92879        3.49286        1.14385
H          2.79660       -0.10483       -0.08912
H          4.18725       -0.76864        0.76777
H          3.46122       -2.33681       -1.13816
H          4.95558       -2.35677       -2.18414
H          2.63531       -0.25203       -2.28868
