19

C          0.94016        0.03116        0.04459
C          2.46251       -0.06180       -0.01115
C          2.97545       -0.73092       -1.29089
N          2.51390       -2.11135       -1.41749
C          3.03021        1.33537        0.04373
N          3.85100        1.67910        0.98302
N          4.24436        3.00358        0.82789
C          5.02504        3.35985        1.79151
H          0.48069       -0.96181        0.07414
H          0.54104        0.56757       -0.82357
H          0.61879        0.57417        0.94047
H          2.81953       -0.61750        0.86518
H          4.07208       -0.72080       -1.30196
H          2.64690       -0.16765       -2.17254
H          2.85335       -2.65944       -0.62698
H          2.92672       -2.53120       -2.24998
H          2.72327        2.04035       -0.75113
H          5.42739        4.38391        1.82082
H          5.32069        2.68156        2.61015
