16

C          0.93356        0.05082       -0.05480
C          2.23741        0.05082       -0.05480
C          3.75741        0.05082       -0.05480
C          4.28048        1.37788       -0.66769
C          5.14076        1.23601       -1.89538
C          5.47227        0.04818       -2.41756
C          5.02352       -1.18611       -1.82742
C          4.23161       -1.20197       -0.74582
H         -0.13196        0.04881       -0.05932
H          4.08205        0.00429        0.99300
H          4.87540        1.90019        0.09299
H          3.44907        2.05169       -0.91256
H          5.49496        2.14942       -2.36543
H          6.09407       -0.01238       -3.30646
H          5.34461       -2.11383       -2.29292
H          3.91475       -2.15430       -0.33009
