20

C          1.06882       -0.04463       -0.20437
C          2.58735       -0.05641       -0.10526
C          3.07920        0.99331        0.89167
N          4.54591        0.99442        0.94749
C          5.06403        2.01976        1.88061
C          6.58779        1.92565        1.92906
C          4.66224        3.42921        1.47762
N          4.32891        4.59847        1.14331
H          0.72738       -0.80485       -0.91366
H          0.70603        0.92891       -0.55148
H          0.61003       -0.25402        0.76711
H          3.00912        0.13838       -1.09888
H          2.92179       -1.05406        0.20182
H          2.66997        0.77368        1.88506
H          2.69853        1.97141        0.57740
H          4.91774        1.17348        0.01311
H          4.67488        1.82011        2.88653
H          7.03611        2.09587        0.94297
H          6.91002        0.94081        2.28443
H          7.00225        2.67831        2.61003
