21

C          1.68959       -1.10884       -0.53314
C          2.54487       -0.00668        0.08913
N          1.75568        1.20975        0.26090
C          3.07787       -0.42978        1.42754
C          4.38497       -0.52014        1.72862
C          4.91099       -0.91809        3.07709
C          5.78184       -2.13799        2.98447
C          7.06826       -2.17676        3.35683
H          1.31188       -0.80252       -1.51536
H          0.82638       -1.35892        0.09498
H          2.27589       -2.02396       -0.67436
H          3.37279        0.21855       -0.59354
H          0.93311        1.00573        0.82530
H          1.40271        1.50994       -0.64608
H          2.34167       -0.66907        2.19185
H          5.12860       -0.26449        0.97639
H          4.08964       -1.13093        3.77096
H          5.46860       -0.07220        3.49625
H          5.31667       -3.04301        2.59916
H          7.57361       -1.30187        3.75416
H          7.64347       -3.09346        3.27207
