17

C          1.01763       -0.42378       -0.32451
C          2.42338        0.08342        0.02140
C          2.50253        1.54711       -0.21062
N          2.53133        2.68903       -0.43373
N          2.90936       -0.34485        1.36365
C          1.98255       -0.09708        2.46983
N          4.26558       -0.26379        1.52485
C          4.76905       -0.42606        2.70160
H          0.82811       -0.31709       -1.39905
H          0.23032        0.14125        0.18772
H          0.90743       -1.48437       -0.07455
H          3.09269       -0.39512       -0.70790
H          0.92989       -0.09303        2.17879
H          2.19409        0.85204        2.97176
H          2.06638       -0.90914        3.20163
H          5.86315       -0.36883        2.82244
H          4.19681       -0.61990        3.62220
