22

C          1.01217        0.06940        0.03006
C          2.53922       -0.02948       -0.03487
C          3.07752        1.04665       -0.98020
N          3.04812        0.08857        1.33961
C          4.50663       -0.03172        1.43670
C          4.97370        0.12211        2.86112
C          4.74033        1.40953        3.61316
N          4.03855        0.18224        3.98815
H          0.57281       -0.04843       -0.96635
H          0.69033        1.04011        0.42569
H          0.59057       -0.71316        0.67063
H          2.79953       -1.01682       -0.43540
H          2.92298        2.05209       -0.57343
H          2.57091        0.99622       -1.95039
H          4.14660        0.91511       -1.17394
H          2.64562       -0.67606        1.88563
H          5.01205        0.73709        0.84479
H          4.82339       -1.01188        1.06422
H          5.91864       -0.37941        3.03765
H          4.13449        2.18584        3.16098
H          5.50176        1.74763        4.30367
H          3.07896        0.24078        3.63785
