16

C          1.03833       -0.04693        0.05378
C          2.53364       -0.07898        0.04981
C          3.22220       -1.21830       -0.09057
N          4.58478       -1.36881       -0.10910
C          5.32189       -2.50797       -0.24950
N          4.96914       -3.73151       -0.40029
C          6.75762       -2.39648       -0.23577
C          7.95854       -2.34292       -0.22915
H          0.68402        0.98064        0.18041
H          0.63821       -0.64350        0.87971
H          0.63818       -0.42514       -0.89226
H          3.04836        0.87016        0.16677
H          2.67674       -2.15149       -0.20557
H          5.11313       -0.50900       -0.00315
H          3.95057       -3.78924       -0.40740
H          9.02296       -2.34324       -0.22918
