17

C          1.00869       -0.09185       -0.03813
C          2.51214       -0.09000       -0.03944
C          3.18696        0.28891        1.06004
C          3.23040       -0.52460       -1.30595
N          2.55256       -0.88623       -2.36004
N          4.60843       -0.55412       -1.39332
C          5.43653       -0.90576       -2.42078
N          5.10337       -1.30852       -3.59625
H          0.59652        0.23712        0.92226
H          0.62445       -1.09986       -0.22601
H          0.62202        0.58742       -0.80500
H          2.65025        0.59591        1.95528
H          4.26444        0.32001        1.14524
H          1.54335       -0.83769       -2.21846
H          5.10455       -0.27028       -0.56370
H          6.50392       -0.81555       -2.15877
H          4.06256       -1.30997       -3.59918
