18

C          1.47618       -0.09315       -1.70362
C          2.48649        0.07316       -0.84126
C          3.36924       -1.03537       -0.34768
N          2.90095       -2.23845       -0.18996
N          4.65416       -0.68683        0.00573
C          5.54299       -1.67784        0.55775
C          6.67224       -0.89072       -0.12034
C          5.57059       -0.42389       -1.07644
H          0.89477        0.76318       -2.02905
H          1.21529       -1.06036       -2.11739
H          2.74829        1.06215       -0.47839
H          1.91033       -2.27177       -0.44457
H          5.41028       -2.68992        0.15906
H          5.55348       -1.69026        1.64953
H          7.48415       -1.47484       -0.55765
H          7.09151       -0.08671        0.49734
H          5.42028       -1.07605       -1.94557
H          5.59999        0.62355       -1.38185
