21

C          2.59537       -0.75709       -1.25879
C          2.44980        0.10046       -0.00016
N          2.80683       -0.71357        1.16778
C          3.31303        1.37809       -0.04705
C          2.94432        2.32348       -1.20984
C          2.91972        3.67749       -0.58698
C          3.05511        3.62565        0.73928
C          3.19475        2.22671        1.23716
H          1.95946       -1.64791       -1.19650
H          3.62906       -1.09145       -1.39982
H          2.29281       -0.20799       -2.15560
H          1.39652        0.38754        0.10270
H          3.76116       -1.05900        1.06978
H          2.21125       -1.53890        1.20572
H          4.36706        1.08602       -0.16830
H          1.96768        2.09841       -1.64935
H          3.70205        2.27730       -1.99934
H          2.77234        4.59028       -1.15043
H          3.03182        4.48546        1.39462
H          2.32566        1.95985        1.84701
H          4.09689        2.12380        1.85015
