22

C          2.88330       -0.17884        1.45761
C          2.45426        0.02306        0.00459
N          0.98810       -0.00214       -0.08082
C          2.98111        1.34185       -0.59159
C          4.48386        1.40017       -0.63261
C          5.17177        2.65055       -1.13243
N          5.16908        2.30717        0.28465
C          6.43937        1.78032        0.77132
H          2.47471       -1.11295        1.85943
H          2.54197        0.64281        2.09646
H          3.97259       -0.24476        1.54289
H          2.83940       -0.81405       -0.58969
H          0.60372        0.76053        0.47828
H          0.63838       -0.86085        0.34355
H          2.57680        2.19686       -0.03141
H          2.61205        1.44119       -1.62082
H          4.94306        0.45223       -0.89071
H          4.56128        3.49871       -1.41725
H          6.09029        2.54181       -1.69851
H          6.97755        2.57291        1.30136
H          7.10047        1.39464       -0.01336
H          6.25740        0.97183        1.48745
