17

C          2.84289        0.33541        1.30988
C          2.41869       -0.00711       -0.11046
N          2.90240        0.99278       -1.03321
C          4.08487        0.94218       -1.69561
N          4.44636        2.01802       -2.33837
C          3.33207        3.00315       -2.05806
C          2.34331        2.22585       -1.18649
N          1.23954        2.69155       -0.71593
H          2.45547       -0.40782        2.01402
H          2.46660        1.31783        1.61276
H          3.93426        0.35573        1.39879
H          1.32621       -0.07772       -0.16552
H          2.81007       -0.99306       -0.38046
H          4.66135        0.00414       -1.65387
H          2.85927        3.32009       -2.99119
H          3.72500        3.86045       -1.50383
H          1.11058        3.66188       -1.01857
