22

C          0.90380       -0.61294       -0.28278
C          2.38016       -0.36728        0.07237
C          3.13619       -1.70095       -0.02065
N          2.43496        0.11742        1.46630
C          2.95886        0.78432       -0.80305
N          2.31390        2.11308       -0.59887
C          4.44888        0.86321       -1.08808
C          3.49601        0.49691       -2.18889
H          0.47616       -1.42151        0.32162
H          0.79720       -0.88788       -1.33789
H          0.28502        0.27645       -0.11489
H          4.19027       -1.60496        0.25748
H          2.69740       -2.45079        0.64857
H          3.09437       -2.11465       -1.03357
H          3.41309        0.16953        1.75204
H          1.99857       -0.56900        2.07947
H          2.22833        2.23795        0.41317
H          1.35354        2.08521       -0.93460
H          5.12034        0.10356       -0.71430
H          4.90727        1.84689       -1.12831
H          3.52119       -0.51845       -2.56022
H          3.32387        1.23295       -2.96765
