23

C          3.13689        1.24715       -0.33168
C          2.48423       -0.09643        0.02333
C          0.95881        0.08644       -0.01627
N          2.93759       -1.16234       -0.88901
C          4.37307       -1.44838       -0.78450
C          4.49939       -2.76808       -1.51871
C          3.25377       -3.52519       -1.10579
C          2.25611       -2.44849       -0.69263
H          2.78080        2.03787        0.33866
H          2.89840        1.54684       -1.35842
H          4.22605        1.21306       -0.22914
H          2.76212       -0.34860        1.05550
H          0.60379        0.25663       -1.03828
H          0.65527        0.94693        0.59091
H          0.43573       -0.78692        0.38688
H          4.68821       -1.56497        0.25984
H          4.99116       -0.68129       -1.26107
H          5.41758       -3.30507       -1.25945
H          4.49742       -2.60471       -2.60375
H          3.47538       -4.17510       -0.25103
H          2.87863       -4.15246       -1.91981
H          1.97066       -2.61422        0.35263
H          1.35300       -2.50021       -1.30966
