21

C          2.88348        2.77186       -1.87924
C          2.58440        1.47259       -1.14447
C          3.20660        1.40174        0.25132
N          4.66340        1.42370        0.19944
C          5.36075        0.15612        0.04852
C          5.38179        2.57152        0.44742
N          6.67176        2.67807        0.45149
N          7.12885        3.91936        0.73753
H          2.33552        2.80300       -2.82667
H          3.94904        2.86350       -2.11046
H          2.58136        3.63998       -1.28483
H          2.92473        0.62812       -1.75510
H          1.49697        1.37493       -1.04352
H          2.86802        0.48397        0.74711
H          2.83162        2.22961        0.86587
H          4.66711       -0.67655       -0.10941
H          5.94443       -0.06378        0.94795
H          6.03841        0.19030       -0.81064
H          4.73085        3.44234        0.65013
H          8.11568        3.98764        0.48473
H          6.63825        4.65014        0.21972
