22

C          0.94648       -0.37362        1.40277
C          2.46685       -0.33917        1.38537
C          2.97030        1.04969        1.02475
C          4.47141        1.09352        0.88162
N          5.19768        1.75800        1.72151
N          6.49316        1.87378        1.32587
C          7.36821        0.68875        1.37820
C          7.21259        3.02797        1.89007
H          0.58553       -1.36605        1.68406
H          0.53883       -0.13121        0.41429
H          0.54539        0.35147        2.12015
H          2.84020       -1.07955        0.66750
H          2.85230       -0.63120        2.36993
H          2.65283        1.78311        1.77297
H          2.55377        1.35715        0.05327
H          4.89031        0.56545        0.00254
H          6.82985       -0.22568        1.11196
H          7.80560        0.53631        2.37159
H          8.17976        0.80342        0.64953
H          6.53155        3.88063        2.00416
H          8.01056        3.33701        1.21429
H          7.63660        2.80989        2.87786
