18

C          1.01553       -0.26385        0.18272
C          2.52500       -0.11332        0.09692
N          3.01510        0.68368        1.21650
C          4.34950        0.85871        1.36774
C          5.44337        0.12718        0.95697
C          6.60771        0.82129        1.37084
C          6.19319        1.95145        2.03774
N          4.82128        1.94630        2.05760
H          0.64181       -0.82954       -0.67494
H          0.52117        0.71263        0.19149
H          0.72813       -0.79462        1.09660
H          2.78481        0.38166       -0.84710
H          2.98199       -1.10976        0.09806
H          2.38477        1.43674        1.48095
H          5.41400       -0.80550        0.41112
H          7.63425        0.52649        1.19733
H          6.75101        2.75155        2.50461
H          4.24160        2.64731        2.49157
