20

C          3.35203        0.47495        1.07730
C          2.51329        0.18706       -0.15953
N          2.86118        1.07719       -1.24776
C          4.09001        1.12596       -1.82680
N          4.50494        2.25324       -2.31598
C          3.42172        3.21537       -1.94757
C          2.25132        2.39020       -1.36590
C          1.07064        2.32768       -2.32719
H          3.03898       -0.16512        1.90775
H          3.25366        1.51885        1.39224
H          4.41362        0.28343        0.88692
H          1.45016        0.29148        0.08518
H          2.66670       -0.85165       -0.47230
H          4.66802        0.18808       -1.84903
H          3.12976        3.80725       -2.82095
H          3.81558        3.89973       -1.18677
H          1.93368        2.79770       -0.39962
H          1.35957        1.89732       -3.29318
H          0.66583        3.32831       -2.51016
H          0.26817        1.70483       -1.91809
