21

C          1.71788        0.46945        1.40103
C          2.40839       -0.01849        0.13000
N          1.43133       -0.66084       -0.75710
C          3.16418        1.06208       -0.65821
C          2.37358        2.19469       -1.30904
C          3.27295        2.50027       -0.15427
C          4.32097        0.56434       -1.44987
C          5.60156        0.54528       -1.05572
H          1.21343       -0.35686        1.91457
H          0.96834        1.24038        1.19280
H          2.44953        0.88689        2.10129
H          3.12981       -0.78805        0.43422
H          0.71510        0.01644       -1.01114
H          0.94967       -1.39809       -0.24525
H          1.30497        2.25930       -1.14331
H          2.67534        2.54059       -2.29225
H          2.80764        2.79322        0.77803
H          4.17802        3.06269       -0.36114
H          4.07681        0.15845       -2.43116
H          5.89509        0.92255       -0.08168
H          6.37695        0.15138       -1.70308
