18

C          1.04526       -0.02475       -0.13570
C          2.56303        0.02603       -0.07744
N          3.11904       -1.31638       -0.24736
C          4.59026       -1.32245       -0.24447
C          5.32884       -1.00319        1.02556
C          5.31636       -2.41657        0.50542
C          6.52069       -2.96261       -0.04839
N          7.49870       -3.39715       -0.49689
H          0.63005        0.97500        0.02676
H          0.64077       -0.68631        0.63830
H          0.69635       -0.38191       -1.11020
H          2.86272        0.43571        0.89413
H          2.93627        0.69776       -0.85861
H          2.76123       -1.72162       -1.11643
H          5.04411       -0.96626       -1.16885
H          4.75691       -0.79606        1.92242
H          6.23644       -0.41561        0.93982
H          4.70512       -3.12688        1.05294
