20

C          2.97701       -1.36796       -0.40457
C          2.52618        0.04744       -0.04304
C          3.03511        1.17167       -0.98730
N          2.55887        0.96306       -2.36329
C          2.54579        2.56770       -0.47403
N          1.08220        2.74478       -0.50400
C          4.55511        1.17167       -0.98730
C          5.85897        1.17167       -0.98730
H          2.62126       -2.07393        0.35325
H          4.06722       -1.45225       -0.44234
H          2.57011       -1.68573       -1.36892
H          2.86920        0.25492        0.98003
H          1.42998        0.05250       -0.00846
H          1.55095        0.81844       -2.32060
H          2.95100        0.09236       -2.71607
H          2.99410        3.36382       -1.08358
H          2.89530        2.72967        0.55294
H          0.79360        2.71879       -1.48246
H          0.86630        3.68760       -0.18134
H          6.92439        1.17262       -0.99350
