20

C         -0.18868        1.19017        2.82375
C         -0.40336        1.46939        1.34418
N         -1.03894        0.32748        0.68920
C         -1.12038        0.50771       -0.75847
C         -0.21951       -0.54644       -0.16389
C          1.30195       -0.57393       -0.18454
C          2.07557       -0.62138       -1.48765
N          2.15127        0.53648       -0.61915
H          0.46783        0.32886        2.97958
H         -1.14002        1.00019        3.33213
H          0.27458        2.05998        3.30241
H         -1.07697        2.33176        1.25957
H          0.54370        1.78429        0.90080
H         -0.68834        1.39757       -1.19513
H         -2.05065        0.18491       -1.21154
H         -0.63365       -1.55574       -0.23184
H          1.73249       -1.16771        0.62249
H          1.55772       -0.47566       -2.42714
H          2.96469       -1.23767       -1.53499
H          1.58618        1.30367       -0.98171
