19

C          2.50505        0.28342        1.41724
C          2.67320       -0.02153       -0.06206
C          3.08901        1.22909       -0.83831
N          2.03795        2.03537       -1.23400
C          2.12338        3.34817       -1.81795
N          4.37392        1.36232       -0.99568
N          4.78071        2.44002       -1.77589
C          6.06882        2.50332       -1.81867
H          2.22748       -0.62492        1.96038
H          1.72220        1.03199        1.58093
H          3.43361        0.67281        1.84810
H          1.73328       -0.40689       -0.47194
H          3.43357       -0.79880       -0.19560
H          1.12195        1.60346       -1.28549
H          2.93736        3.94319       -1.39686
H          1.20107        3.89460       -1.59735
H          2.22596        3.28676       -2.90434
H          6.55380        3.29422       -2.41099
H          6.72873        1.79756       -1.28645
