19

C          2.07038        0.30189       -0.26092
C          2.66807       -0.59881        0.82276
C          2.13232       -2.00812        0.60731
N          1.11169       -2.57127        1.18450
N          0.45551       -1.81037        2.08497
C          4.17081       -0.65577        0.93739
C          5.08080       -0.84095       -0.25137
N          5.07339        0.40799        0.51043
H          2.79905        0.89428       -0.81600
H          1.37714        1.01341        0.20506
H          1.48087       -0.26146       -0.99345
H          2.31200       -0.22485        1.78976
H          2.64828       -2.60811       -0.16312
H         -0.03775       -2.42395        2.74064
H         -0.30219       -1.30056        1.62189
H          4.46507       -1.15075        1.86008
H          4.67941       -0.80117       -1.25514
H          5.95637       -1.46619       -0.12203
H          4.60522        1.15304       -0.00404
