15

C          1.55282        0.23322        0.07798
C          2.86548        0.07742        0.32251
C          2.85319       -1.28849       -0.37445
N          2.56415       -1.98924       -1.58024
C          3.50477       -2.71678       -2.23180
N          3.30344       -3.35739       -3.31718
C          4.30156       -0.13925        0.58680
N          5.40455       -0.53365        0.66728
H          1.02048        1.17212        0.06654
H          0.83778       -0.56534       -0.17161
H          3.34789       -0.65967       -1.13717
H          3.10831       -1.99863        0.41162
H          1.63613       -1.88979       -1.92896
H          4.47948       -2.73570       -1.73048
H          2.33251       -3.23506       -3.60438
