23

C          2.96508        1.43609        0.35376
C          2.54543       -0.01936        0.11614
C          2.93180       -0.43923       -1.32822
N          2.56587       -1.81443       -1.72704
C          1.12271       -2.04237       -1.66494
C          3.05913       -2.08851       -3.07877
C          3.18166       -0.90165        1.16663
C          2.49142       -1.62181        2.05866
H          2.37509        2.11173       -0.27593
H          4.02327        1.59468        0.11394
H          2.80768        1.73319        1.39683
H          1.45381       -0.05518        0.22002
H          4.02165       -0.33591       -1.42539
H          2.48864        0.27861       -2.03176
H          0.77426       -2.06626       -0.62840
H          0.86216       -3.01856       -2.09013
H          0.55855       -1.27462       -2.20779
H          4.14869       -1.97101       -3.12345
H          2.60929       -1.42496       -3.82528
H          2.84657       -3.12340       -3.36499
H          4.26932       -0.94769        1.18321
H          1.40463       -1.62211        2.07348
H          3.00191       -2.24466        2.78638
