19

C          3.01489       -0.96233       -0.93822
C          2.49167       -0.01838        0.12896
C          2.97280       -0.38979        1.52960
N          2.07457       -0.72870        2.51711
C          0.77404       -1.14535        2.48117
C         -0.01410       -1.35803        3.53943
N          4.26242       -0.30944        1.74043
N          4.66550       -0.67224        2.98840
H          2.69629       -0.62497       -1.92911
H          2.64040       -1.98054       -0.78505
H          4.11005       -1.00417       -0.93516
H          1.39961        0.01802        0.08450
H          2.84841        0.99660       -0.08152
H          2.49081       -0.64062        3.43984
H          0.38719       -1.33521        1.48244
H          0.32695       -1.18166        4.55465
H         -1.03237       -1.70767        3.40672
H          5.68890       -0.69106        3.00834
H          4.37261       -1.63087        3.19942
