24

C          1.04674       -0.16455        0.07288
C          2.56165       -0.00770        0.00921
C          3.02984        1.06513       -0.99390
N          2.51687        2.39700       -0.62658
C          4.58290        1.12915       -1.08737
N          5.25917       -0.12020       -1.50082
C          4.86233       -0.53011       -2.85025
C          6.71238        0.06920       -1.45261
H          0.78390       -0.99237        0.73950
H          0.63370       -0.38309       -0.91682
H          0.56215        0.73582        0.46109
H          2.98561       -0.97972       -0.26845
H          2.93913        0.22340        1.01299
H          2.62262        0.83338       -1.98421
H          2.73741        2.58445        0.35139
H          1.50025        2.39838       -0.69005
H          4.96221        1.41078       -0.09501
H          4.86372        1.94368       -1.77082
H          3.81524       -0.84774       -2.87003
H          5.44483       -1.39838       -3.17840
H          5.00071        0.27149       -3.58452
H          7.03442        0.33304       -0.43841
H          7.05076        0.85438       -2.13725
H          7.23093       -0.86115       -1.71149
