21

C          3.46100       -0.74719       -0.70623
C          2.41141        0.01844        0.08253
C          2.95843        1.16838        0.92850
C          1.97048        2.04153        1.71370
N          0.57698        1.60837        1.57113
N          4.25281        1.35789        0.94553
N          4.72582        2.40658        1.65638
C          6.17564        2.55940        1.67130
H          2.98949       -1.54749       -1.28529
H          4.20377       -1.20161       -0.04271
H          3.98757       -0.08923       -1.40531
H          1.88745       -0.67482        0.74962
H          1.68110        0.43395       -0.62064
H          2.06597        3.07956        1.38027
H          2.23584        1.98677        2.77456
H          0.24492        1.85960        0.63970
H          0.00068        2.14481        2.21950
H          4.39590        2.40685        2.62420
H          6.63515        2.17729        0.75469
H          6.60594        2.02519        2.52458
H          6.43124        3.61938        1.76340
