21

C          3.60298       -1.03139       -0.17943
C          2.57385        0.10103       -0.07096
N          1.71421       -0.16252        1.08632
C          3.12757        1.51769        0.02224
C          2.07845        2.60877        0.05783
C          4.44681        1.80265        0.04131
C          5.03215        3.12315        0.11664
C          6.35468        3.32819        0.12890
H          3.10576       -2.00382       -0.27446
H          4.25218       -1.07868        0.70274
H          4.23458       -0.90583       -1.06581
H          1.94896        0.05440       -0.97186
H          2.28528       -0.14123        1.92981
H          1.34155       -1.10810        1.02235
H          1.06246        2.20674       -0.01326
H          2.20335        3.29557       -0.78601
H          2.14043        3.17147        0.99556
H          5.17176        0.99228        0.00153
H          4.37170        3.98475        0.16578
H          7.06884        2.51237        0.08234
H          6.75427        4.33600        0.18661
