22

C          0.74338       -0.87830       -1.52767
C          2.25350       -1.05284       -1.56846
N          2.90988        0.21743       -1.26581
C          4.37635        0.11102       -1.30650
C          5.18965        1.32665       -0.97049
C          5.19479        0.15167       -0.03451
N          6.41807       -0.65696        0.06485
C          6.26428       -1.78674        0.97135
H          0.24805       -1.82337       -1.77290
H          0.41148       -0.12614       -2.25269
H          0.40533       -0.56884       -0.53292
H          2.54315       -1.39775       -2.56798
H          2.55242       -1.82026       -0.84446
H          2.58938        0.56004       -0.36196
H          4.76794       -0.48589       -2.12933
H          4.67040        2.22421       -0.65624
H          6.06914        1.51734       -1.57387
H          4.66584        0.30682        0.90356
H          7.19892       -0.08114        0.38165
H          5.43688       -2.43339        0.66256
H          6.08727       -1.44800        1.99747
H          7.17855       -2.38818        0.96702
