23

C          0.93871        1.66260       -0.79858
C          2.45640        1.74762       -0.73953
C          2.98169        1.44258        0.66814
N          4.44519        1.49337        0.74663
C          5.00746        2.81013        0.44401
C          6.42250        2.68324        0.97237
C          6.24979        1.89258        2.25749
C          4.93796        1.13214        2.08248
H          0.58546        1.92582       -1.80071
H          0.47883        2.35439       -0.08535
H          0.59227        0.65011       -0.56994
H          2.75135        2.75584       -1.05047
H          2.88688        1.04367       -1.46169
H          2.65035        0.43456        0.94851
H          2.53104        2.13985        1.38654
H          4.47571        3.61204        0.96974
H          5.01312        3.02562       -0.62858
H          6.89615        3.65415        1.14266
H          7.04618        2.11830        0.26787
H          6.17437        2.57634        3.11157
H          7.09889        1.22469        2.43276
H          4.24382        1.42255        2.88078
H          5.09751        0.05088        2.14958
