19

C          2.86626       -1.01122        1.13870
C          2.47043       -0.02084        0.05026
C          3.08844       -0.34084       -1.32724
N          2.58720        0.61652       -2.32414
C          4.61062       -0.34955       -1.32885
C          5.31202       -1.43576       -1.69818
C          5.33717        0.81157       -0.91599
C          5.94688        1.78546       -0.56741
H          2.38274       -0.74063        2.08303
H          3.94656       -1.01581        1.31088
H          2.55248       -2.02656        0.87697
H          2.74543        0.99114        0.37351
H          1.37568       -0.03137       -0.03452
H          2.72356       -1.32953       -1.63315
H          2.86584        1.55605       -2.04147
H          1.56948        0.61229       -2.31372
H          4.81748       -2.34430       -2.02626
H          6.39805       -1.43919       -1.69740
H          6.49204        2.64772       -0.26185
