22

C          0.96998        0.04630        0.15401
C          2.48294        0.07863       -0.01524
C          3.00303       -0.91040       -1.07497
C          2.46520       -0.60512       -2.47356
N          4.47742       -0.85820       -1.10124
N          5.09238       -1.96918       -1.58461
C          6.38286       -1.88745       -1.58649
C          7.21357       -3.04440       -2.04672
H          0.67431        0.67540        0.99982
H          0.61742       -0.97129        0.35010
H          0.45847        0.42715       -0.73452
H          2.93302       -0.16579        0.95602
H          2.79507        1.10157       -0.25942
H          2.68742       -1.92000       -0.78098
H          2.70442        0.41983       -2.77893
H          1.37783       -0.72463       -2.51355
H          2.88731       -1.28677       -3.22035
H          4.82495       -0.62185       -0.16925
H          6.92759       -0.98472       -1.25603
H          6.58362       -3.89229       -2.32796
H          7.88376       -3.34051       -1.23510
H          7.81626       -2.73169       -2.90271
