25

C          0.66989        0.29998       -0.04250
C          2.18946        0.22091        0.06650
C          2.63423       -0.79387        1.13993
N          4.05586       -0.83917        1.51019
C          4.81040        0.39070        1.36018
C          4.76627       -2.05798        1.12871
C          4.51157       -3.18304        2.14907
C          5.40723       -3.09150        3.37985
H          0.38715        1.03778       -0.80162
H          0.22527        0.62087        0.90782
H          0.23053       -0.65900       -0.32569
H          2.54731        1.22531        0.31056
H          2.60964       -0.05426       -0.91031
H          2.28987       -1.78765        0.82032
H          2.08178       -0.58108        2.05983
H          4.72528        0.84355        0.36733
H          5.87900        0.24043        1.54846
H          4.47044        1.11076        2.11173
H          5.84919       -1.89376        1.08037
H          4.47190       -2.38866        0.12638
H          4.69844       -4.14873        1.66388
H          3.46490       -3.19452        2.47161
H          6.46647       -3.07253        3.10170
H          5.25352       -3.96770        4.01929
H          5.18963       -2.20263        3.97780
