19

C          1.19984        0.62562        0.17987
C          2.52540       -0.08373       -0.03684
C          3.13643        0.10114       -1.42871
N          2.36951        0.25595       -2.48012
N          4.53389        0.07369       -1.56082
N          5.00615        0.59369       -2.79998
C          5.45448       -0.51074       -0.71247
C          6.79068       -0.56149       -0.79895
H          0.91972        0.58417        1.23798
H          0.39341        0.15241       -0.38972
H          1.25882        1.67639       -0.11865
H          2.41618       -1.15717        0.15208
H          3.23067        0.31404        0.70010
H          1.38163        0.21525       -2.22582
H          4.17181        0.92584       -3.30392
H          5.32423       -0.19233       -3.36855
H          4.98790       -1.01456        0.12911
H          7.32590       -0.08283       -1.61288
H          7.37548       -1.08259       -0.04868
