22

C          1.55518       -0.06586        0.00083
C          2.55215        0.51212        1.02349
C          2.76870       -0.43419        2.21632
N          1.57160       -0.54832        3.04856
C          3.88503        0.78788        0.31382
C          5.12589        1.28303        1.10431
C          5.33422        2.23045       -0.08850
N          3.88546        2.12226       -0.35251
H          2.03923       -0.36481       -0.93543
H          0.80365        0.68827       -0.25489
H          1.02226       -0.94418        0.37692
H          2.14294        1.45359        1.41842
H          3.07174       -1.42729        1.86673
H          3.57422       -0.06143        2.85867
H          1.70099       -1.28580        3.73924
H          0.76462       -0.81311        2.48771
H          4.16826       -0.02904       -0.36858
H          4.90601        1.79600        2.04689
H          5.91503        0.54357        1.26456
H          5.95399        1.81957       -0.89359
H          5.68696        3.23360        0.16101
H          3.61594        2.12325       -1.33114
