20

C          0.98262        0.02350       -0.12287
C          2.52155        0.05172       -0.04571
C          3.07706       -0.19629       -1.46011
N          2.89397        1.41180        0.40939
N          4.21349        1.73215        0.47752
C          4.43413        2.91209        0.95368
C          3.09977       -0.98134        0.90936
C          2.44643       -1.89242        1.64580
H          0.60508        0.78601       -0.81540
H          0.52155        0.21402        0.85410
H          0.61834       -0.94663       -0.48130
H          2.69936        0.54640       -2.17305
H          2.78214       -1.18610       -1.82957
H          4.17246       -0.15348       -1.48738
H          2.40550        1.59806        1.28810
H          5.47030        3.26911        1.06117
H          3.63502        3.60706        1.26544
H          4.18776       -0.96084        0.98852
H          1.36693       -1.99025        1.63705
H          2.99804       -2.57254        2.28813
