18

C          1.05518        0.32222       -0.16725
N          2.46825        0.24102       -0.48401
C          3.27067        1.31391       -0.13188
N          4.39345        1.09907        0.49655
C          4.53028       -0.34048        0.61771
C          4.64203       -1.16309       -0.63133
C          3.27245       -0.94683       -0.02221
C          2.61406       -2.17439        0.52866
H          0.65138        1.30347       -0.43935
H          0.88391        0.17985        0.90547
H          0.49272       -0.43434       -0.72349
H          2.87176        2.31180       -0.36276
H          4.98600       -0.72977        1.51578
H          5.11019       -2.13369       -0.53553
H          4.88124       -0.65584       -1.55763
H          1.58503       -2.00471        0.85062
H          3.16422       -2.56644        1.39177
H          2.59131       -2.95840       -0.23706
