17

C          0.87154        0.05678        0.02680
N          2.33178       -0.06604        0.07878
C          2.90904       -1.32654        0.08877
C          4.19991       -1.66510       -0.00431
C          5.35002       -0.71441       -0.06515
N          5.13186        0.52161        0.68074
N          4.28726        1.46683        0.20576
C          3.05409        1.12405        0.00274
H          0.36398       -0.91040        0.11248
H          0.56240        0.51131       -0.92109
H          0.51817        0.68808        0.84953
H          2.17847       -2.13117        0.14065
H          4.45666       -2.72032       -0.03171
H          5.61725       -0.50562       -1.10738
H          6.21380       -1.21734        0.38580
H          6.04050        0.95536        0.84842
H          2.39518        1.95859       -0.29756
