18

C          0.97846       -0.06739       -0.00727
N          2.42581       -0.08207        0.14812
C          2.91415        1.00892        0.98837
C          4.33820        0.57007        1.27218
C          4.20712       -0.93536        1.48082
C          2.92545       -1.32881        0.74429
C          5.42492       -1.68055        0.95922
N          6.43519       -2.29874        0.52651
H          0.65603        0.86155       -0.49008
H          0.45621       -0.15347        0.95261
H          0.65396       -0.89240       -0.65056
H          2.34824        1.09006        1.92456
H          2.88511        1.97272        0.47086
H          4.75473        1.07076        2.15222
H          4.98626        0.80475        0.41736
H          4.09713       -1.15154        2.55100
H          2.21194       -1.73615        1.47273
H          3.08310       -2.08612       -0.03125
