17

C          0.97589       -0.00858       -0.03743
N          2.41999       -0.03535       -0.14689
C          3.26621        1.05400       -0.17869
C          4.56502        0.70987       -0.09688
C          4.49342       -0.77980        0.02224
N          5.53289       -1.54269        0.03237
N          3.16504       -1.16691        0.10082
C          2.68471       -2.50616       -0.13392
H          0.59216        1.01640       -0.06733
H          0.64390       -0.47070        0.89708
H          0.52860       -0.55396       -0.87579
H          2.85989        2.05254       -0.25280
H          5.44602        1.31914       -0.10049
H          6.38190       -0.97565       -0.04826
H          3.49266       -3.24394       -0.09616
H          2.19144       -2.58913       -1.10789
H          1.96163       -2.77634        0.64320
