17

C          0.93202        0.10585       -0.08593
N          2.36677       -0.00177       -0.07330
C          3.25501        1.03183       -0.02936
N          4.49575        0.59823       -0.02791
C          4.40528       -0.77926       -0.07887
C          5.63003       -1.62827       -0.09415
N          6.00222       -1.95229        1.28215
C          3.07978       -1.16548       -0.10468
H          0.64259        1.15910       -0.09031
H          0.53964       -0.38490        0.80870
H          0.55601       -0.38592       -0.98735
H          2.95255        2.07058        0.00210
H          6.44949       -1.09103       -0.58341
H          5.44987       -2.55117       -0.65448
H          6.11791       -1.06591        1.77644
H          6.91816       -2.39374        1.27444
H          2.61489       -2.14078       -0.13203
