21

C          0.91378        1.41792        1.77000
C          2.43131        1.47824        1.87217
N          3.02220        0.21825        1.40679
C          4.49645        0.27335        1.40221
C          5.13629        0.36238        2.80487
N          4.69097       -0.74198        3.63546
C          4.94950       -0.81644        4.96084
N          4.46157       -1.69224        5.76205
H          0.47711        2.35032        2.14363
H          0.50961        0.59454        2.36806
H          0.58765        1.28560        0.73310
H          2.69386        1.66620        2.91701
H          2.79414        2.31856        1.26967
H          2.70107        0.04066        0.45321
H          4.84620        1.10380        0.77781
H          4.84969       -0.64895        0.92392
H          4.88278        1.31712        3.27835
H          6.22644        0.32748        2.70421
H          3.88037       -1.23613        3.27307
H          5.64791       -0.04930        5.33502
H          3.86502       -2.33055        5.23230
