14

C          1.01652        0.11882       -0.04115
N          2.45419        0.03957       -0.03675
C          3.32333        1.09241       -0.03281
N          4.57403        0.68273       -0.02664
C          4.49428       -0.68376       -0.02617
C          3.18930       -1.11185       -0.03317
C          5.66246       -1.49160       -0.01776
C          6.64194       -2.18744       -0.00967
H          0.70544        1.16645       -0.04175
H          0.64065       -0.38085        0.85535
H          0.64613       -0.38040       -0.94014
H          3.00238        2.12615       -0.03488
H          2.74533       -2.09722       -0.03483
H          7.50969       -2.80398       -0.00192
