15

C          1.26620        0.04307       -0.10724
N          2.62680        0.08124        0.40290
C          3.44899       -1.08412        0.06544
C          4.76645       -0.58581        0.61982
C          4.57580        0.87329        0.39603
N          3.33709        1.23774        0.28873
C          6.00993       -1.15366       -0.04478
N          7.04150       -1.62474       -0.59613
H          0.82894       -0.95500        0.00455
H          1.22187        0.32947       -1.16191
H          0.63720        0.73320        0.46643
H          3.48942       -1.24638       -1.01842
H          3.11057       -1.99784        0.56221
H          4.84345       -0.74930        1.70235
H          5.42170        1.57463        0.40066
