21

C          1.08352       -0.29352       -0.44415
C          2.57565       -0.37217       -0.47222
N          3.28171        0.60762       -0.93409
N          4.60560        0.32970       -1.02844
C          5.41272        0.09879        0.16994
C          5.37304        0.99849       -2.09666
C          5.09809        2.50804       -2.26809
N          5.89661        3.07648       -3.36760
H          0.68538       -1.11709        0.15110
H          0.69695       -0.36895       -1.46625
H          0.76494        0.65126       -0.00761
H          3.01971       -1.33161       -0.15018
H          4.80905       -0.27715        1.00355
H          5.91881        1.00188        0.51393
H          6.16001       -0.67445       -0.04103
H          5.12474        0.49338       -3.03809
H          6.45011        0.84302       -1.94964
H          5.32972        3.05101       -1.34592
H          4.04087        2.67632       -2.49945
H          6.88481        3.03652       -3.12882
H          5.66286        4.06259       -3.47195
