23

C          1.01095        0.05716       -0.00142
N          2.44382       -0.03841        0.22514
C          2.95419        1.07032        1.02807
C          4.37164        0.62359        1.31328
C          4.22345       -0.86614        1.58202
C          2.94445       -1.29365        0.82402
C          1.97914       -1.99676        1.79434
C          3.30405       -2.25830       -0.31640
H          0.77717        0.97654       -0.54998
H          0.43431        0.07020        0.92987
H          0.65583       -0.77330       -0.62056
H          2.39395        1.18820        1.96391
H          2.93661        2.01837        0.48145
H          4.81576        1.15432        2.16069
H          5.01076        0.78476        0.43634
H          4.11556       -1.02052        2.66283
H          5.12132       -1.40548        1.26107
H          1.66396       -1.32650        2.60203
H          2.46049       -2.86558        2.25852
H          1.07981       -2.35926        1.28449
H          4.02226       -1.80755       -1.01169
H          2.41819       -2.54662       -0.89356
H          3.75810       -3.17602        0.07496
