21

C          1.16570       -0.09070        0.00416
N          2.62244       -0.09501       -0.04888
C          3.25073       -0.09778        1.26317
C          3.28770       -1.32841        0.37001
C          2.57327       -2.58580        0.80697
C          3.41483       -3.72341        0.22018
C          4.82097       -3.14390        0.14774
C          4.58400       -1.70567       -0.30804
H          0.80680        0.93427       -0.13619
H          0.74005       -0.45745        0.94535
H          0.75835       -0.69222       -0.81519
H          2.62467       -0.10931        2.14754
H          4.14695        0.50428        1.35682
H          1.54301       -2.66324        0.44727
H          2.56348       -2.65496        1.90100
H          3.06067       -3.96739       -0.78891
H          3.36383       -4.63168        0.82726
H          5.47059       -3.69607       -0.53749
H          5.28088       -3.15270        1.14275
H          4.45871       -1.67179       -1.39718
H          5.42337       -1.05966       -0.03386
