15

C          3.52596        0.80781        1.16506
C          2.77465        0.10434        0.06038
N          1.47699        0.08978        0.03750
N          3.48201       -0.52619       -0.92979
N          4.83997       -0.57131       -1.00064
C          5.32055       -1.21202       -2.00679
C          6.75507       -1.20866       -2.00150
C          7.95584       -1.19486       -1.97983
H          2.84211        1.26547        1.88376
H          4.15878        1.58783        0.73174
H          4.15879        0.08523        1.68859
H          1.10574        0.60360        0.84439
H          2.88953       -0.97058       -1.62763
H          4.75934       -1.72059       -2.80542
H          9.01993       -1.16848       -1.93840
