19

C          1.04047        0.15601        0.22656
N          2.39490        0.13065       -0.32358
N          3.16402       -1.06436       -0.13922
C          4.16513       -1.16188       -1.20135
C          5.14442        0.00112       -1.09726
C          4.41734        1.33570       -1.13282
C          3.14762        1.30374       -0.29251
N          2.77766        2.37153        0.34547
H          0.58448       -0.83929        0.18765
H          0.41129        0.82182       -0.37339
H          1.03370        0.49659        1.26752
H          2.55482       -1.88294       -0.19719
H          3.68295       -1.18346       -2.18625
H          4.71537       -2.10354       -1.08821
H          5.86902       -0.04358       -1.91879
H          5.71291       -0.07834       -0.16259
H          4.10392        1.56447       -2.15807
H          5.08069        2.14127       -0.80239
H          3.47330        3.11467        0.22963
