14

C          1.11760       -0.03005       -0.01099
N          2.56290       -0.04834       -0.00675
C          3.37479        1.05453       -0.00417
C          4.68314        0.61720        0.00191
C          4.65520       -0.79993        0.00249
C          3.32972       -1.18499       -0.00361
C          5.77685       -1.68682        0.00856
N          6.68747       -2.40688        0.01378
H          0.76438        1.00412       -0.01188
H          0.76518       -0.54423        0.88675
H          0.77027       -0.54421       -0.91069
H          2.96590        2.05716       -0.00638
H          5.56010        1.25267        0.00572
H          2.87526       -2.16800       -0.00539
