15

C          0.91838       -0.02842       -0.05806
C          2.42477        0.00240        0.04489
N          2.95104        1.01957        0.82758
C          3.82224        0.94426        1.87921
N          4.27469       -0.09225        2.49017
C          3.13269       -0.91283       -0.64548
C          4.65269       -0.91283       -0.64548
N          5.91366       -0.91283       -0.64548
H          0.45856        0.76548        0.54048
H          0.53336       -0.98199        0.31991
H          0.59480        0.10374       -1.09457
H          2.44662        1.89794        0.76324
H          4.12293        1.94360        2.23892
H          3.89363       -0.93996        2.06508
H          2.66546       -1.68028       -1.25114
