18

C          1.10125        0.03863       -0.01919
N          2.45197        0.04596        0.51680
C          3.24858       -1.13161        0.16829
C          4.60992       -0.68152        0.69369
C          5.79574       -1.20034       -0.06283
C          6.77123       -1.91518        0.51051
C          4.41653        0.80304        0.52623
N          3.18493        1.18716        0.43022
H          0.64791       -0.95498        0.05593
H          1.07967        0.35466       -1.06581
H          0.47043        0.72218        0.56161
H          3.26404       -1.29472       -0.91688
H          2.89932       -2.03941        0.67020
H          4.70621       -0.87348        1.76919
H          5.85734       -0.97648       -1.12746
H          6.75227       -2.16562        1.56813
H          7.61800       -2.27496       -0.06853
H          5.26979        1.49583        0.54752
