15

C          0.96772       -0.00668        0.05865
N          2.40452       -0.05099        0.06287
C          3.27571        0.98896        0.06165
N          4.50469        0.52700        0.06736
C          4.32960       -0.83519        0.07184
C          5.48502       -1.66799        0.07876
C          5.47552       -3.00888        0.08313
N          3.04830       -1.22842        0.06908
H          0.63461        1.03393        0.05738
H          0.60309       -0.51357        0.95559
H          0.60843       -0.51420       -0.84008
H          2.97789        2.02796        0.05654
H          6.44102       -1.15364        0.08052
H          4.54134       -3.56335        0.08149
H          6.40091       -3.57320        0.08841
