14

C          1.09939        0.03704       -0.02234
N          2.55728       -0.00058        0.05773
C          3.19274       -0.71248       -1.04415
C          3.20373        0.79689       -0.98468
C          4.42189        1.47032       -0.64311
C          5.43402        2.04730       -0.35287
C          6.72296        2.79390        0.01583
N          7.69725        3.36358        0.28277
H          0.68204       -0.61940        0.74890
H          0.69103       -0.28690       -0.98640
H          0.73476        1.05005        0.17770
H          2.57309       -1.19209       -1.79280
H          4.09591       -1.25553       -0.79255
H          2.55662        1.32215       -1.68084
