17

C          3.36655        0.78239       -0.97972
C          2.63374        0.10019        0.15778
N          1.33567       -0.01399        0.09539
N          3.34932       -0.37094        1.26072
N          2.55743       -1.18766        2.14693
C          4.80310       -0.57916        1.24004
C          5.38554       -0.48983        2.58977
C          5.86366       -0.42558        3.68852
H          2.67704        1.09848       -1.76672
H          4.09734        0.09549       -1.41509
H          3.88196        1.66698       -0.59407
H          0.98030        0.37956       -0.78125
H          1.57282       -1.03107        1.87601
H          2.62974       -0.80472        3.09012
H          5.29406        0.17927        0.62164
H          5.02190       -1.55573        0.79331
H          6.27857       -0.36509        4.66784
