22

C          1.16945       -0.05166        0.07386
N          2.62355       -0.07600        0.07781
C          3.18327        0.97917        0.95951
C          4.26758       -0.03554        1.41879
N          5.42937        0.07290        0.51707
C          3.24231       -1.13371        0.93954
C          2.40305       -1.65621        2.11578
C          3.73977       -2.29951        0.08322
H          0.82230        0.77942       -0.54992
H          0.71405        0.07412        1.06197
H          0.77574       -0.97118       -0.37206
H          2.52999        1.30905        1.77824
H          3.53492        1.87413        0.43491
H          4.52554       -0.01832        2.48068
H          5.13654        0.17222       -0.45850
H          6.03499       -0.74495        0.53612
H          2.01493       -0.85175        2.74978
H          3.01473       -2.30027        2.75827
H          1.55453       -2.25543        1.76713
H          4.28013       -1.96707       -0.80968
H          2.90221       -2.91735       -0.26058
H          4.41340       -2.94216        0.66055
