22

C          2.69480       -0.50623       -1.29840
N          2.25703       -0.00650        0.00799
C          2.44751       -1.05536        1.01694
C          3.07411        1.16459        0.39165
C          2.78742        2.40341       -0.49850
N          2.62888        3.23169        0.72810
C          3.90479        3.81815        1.13641
C          2.35350        1.98730        1.49354
H          2.15064       -1.42081       -1.56126
H          3.76844       -0.72580       -1.32298
H          2.47385        0.21874       -2.08888
H          1.83609       -1.93203        0.77776
H          2.12815       -0.71302        2.00739
H          3.49266       -1.37735        1.09142
H          4.13902        0.97256        0.57532
H          1.86221        2.36163       -1.08766
H          3.59980        2.69442       -1.17319
H          4.16930        4.63787        0.45973
H          4.74409        3.11309        1.15135
H          3.81093        4.24632        2.14043
H          1.27531        1.79930        1.59371
H          2.79286        1.92810        2.49459
