19

C          0.85513        0.00148        0.30713
C          2.37225        0.00510        0.18373
N          2.97508       -0.36248        1.46373
C          4.43583       -0.42991        1.40766
C          5.03228        0.92356        1.10869
C          5.81161        1.21130        0.05757
C          4.94249       -0.82360        2.78559
C          5.37711       -1.16131        3.96758
H          0.40052        0.32852       -0.63477
H          0.51958        0.68354        1.09525
H          0.47817       -1.00075        0.53564
H          2.67830        1.01254       -0.11735
H          2.67296       -0.69372       -0.60489
H          2.62856       -1.27518        1.75461
H          4.76218       -1.18627        0.68368
H          4.78531        1.71746        1.81049
H          6.08153        0.46191       -0.67944
H          6.18818        2.22109       -0.08662
H          5.72959       -1.43049        4.93605
