24

C          0.98033       -0.11988        0.14852
C          2.50186       -0.00338        0.12892
N          3.02188        0.94047       -0.87980
C          2.52778        2.30332       -0.64935
C          4.50641        0.96290       -0.85891
C          5.17976       -0.33120       -1.38226
N          4.66234       -0.79996       -2.67596
C          5.08915        0.06136       -3.77366
H          0.68046       -0.94745        0.79987
H          0.58465       -0.32121       -0.85233
H          0.50670        0.78595        0.53807
H          2.88253       -1.00774       -0.08605
H          2.85281        0.26589        1.13311
H          1.43882        2.35738       -0.74298
H          2.92184        2.98771       -1.40991
H          2.81498        2.68410        0.33734
H          4.87701        1.17653        0.15327
H          4.85920        1.78578       -1.49434
H          5.02484       -1.13454       -0.65450
H          6.26571       -0.18507       -1.43464
H          3.64012       -0.74669       -2.61517
H          6.17927        0.16259       -3.80261
H          4.63960        1.05708       -3.70857
H          4.77469       -0.38173       -4.72313
