19

C          0.98528        0.25066       -0.11188
N          2.36523       -0.03045        0.24862
C          2.79585       -1.35155       -0.27060
C          4.13995       -0.69841       -0.66790
C          5.23908       -0.44102        0.37818
C          5.21491        1.05015        0.55576
C          4.15450        1.63018       -0.01988
C          3.31694        0.62106       -0.69142
H          0.31393       -0.42064        0.43496
H          0.77650        0.14196       -1.18245
H          0.72892        1.27322        0.18472
H          2.23221       -1.72865       -1.13573
H          2.85864       -2.14679        0.47669
H          4.54063       -1.01392       -1.63953
H          6.21293       -0.77378        0.00877
H          5.02595       -0.94179        1.32647
H          5.97006        1.58580        1.11486
H          3.93338        2.68667       -0.00852
H          2.93031        0.90998       -1.67537
