20

C          0.98799        0.13796       -0.14578
C          2.51323        0.07087       -0.07376
N          3.11799        1.14759       -0.87220
N          3.19545        0.93610       -2.21005
C          3.71869        1.92099       -2.85946
C          2.98975        0.24162        1.34991
C          2.69734       -0.81938        2.38468
C          4.10256       -0.62434        1.89282
H          0.63414        0.04731       -1.17795
H          0.60670        1.07850        0.26799
H          0.53817       -0.67725        0.43157
H          2.84821       -0.90063       -0.45894
H          2.64925        2.02807       -0.64894
H          3.84435        1.84449       -3.95135
H          4.06035        2.85750       -2.38548
H          2.94393        1.27139        1.68865
H          2.17472       -1.71811        2.07816
H          2.45693       -0.48852        3.38882
H          4.52516       -1.39111        1.25245
H          4.81890       -0.17126        2.56805
