17

C          0.94053        0.10213       -0.06095
N          2.39125       -0.04120       -0.06802
C          3.18364        1.09744       -0.13726
N          4.47375        1.20184       -0.01877
N          5.10216        0.03927        0.31302
C          4.54936       -1.24735       -0.12857
C          3.02326       -1.29269       -0.03334
C          2.40848       -2.48598        0.05932
H          0.62866        1.15189       -0.03557
H          0.50892       -0.38048        0.82323
H          0.50705       -0.35003       -0.95914
H          2.60849        2.01718       -0.33748
H          6.09530        0.09577        0.08860
H          4.99512       -2.03797        0.48633
H          4.84062       -1.42244       -1.17073
H          2.97800       -3.40997        0.06850
H          1.33140       -2.58077        0.11573
