15

C          0.92968        0.03898       -0.06481
N          2.37513        0.00864       -0.06076
C          3.18312        1.11774       -0.05553
C          4.49208        0.68852       -0.05041
C          4.47055       -0.72745       -0.05355
C          3.14960       -1.12619       -0.06114
C          2.66429       -2.46403       -0.06842
C          2.26210       -3.59488       -0.07580
H          0.58592        1.07670       -0.06527
H          0.56952       -0.46785        0.83410
H          0.57417       -0.46717       -0.96591
H          2.76814        2.11721       -0.05562
H          5.36731        1.32502       -0.04510
H          5.32889       -1.38685       -0.05112
H          1.91548       -4.60162       -0.08305
