22

C          3.13128       -0.07841       -1.32596
C          2.27882       -0.21696       -0.06834
N          2.66117       -1.40923        0.68930
C          2.24388        1.04774        0.80272
C          3.48162        1.43801        1.62425
N          4.72123        1.73157        0.89407
C          4.71172        2.89987        0.02552
C          5.35819        2.96460        1.37654
H          2.97290       -0.93408       -1.99198
H          4.19999       -0.03144       -1.10072
H          2.85374        0.82405       -1.88130
H          1.24706       -0.38200       -0.40588
H          3.64936       -1.33720        0.94265
H          2.61103       -2.22159        0.07813
H          1.93956        1.89890        0.18081
H          1.42796        0.91495        1.52847
H          3.71205        0.62486        2.32397
H          3.17867        2.27882        2.26341
H          3.77939        3.42414       -0.13714
H          5.37434        2.86144       -0.83274
H          4.87159        3.57336        2.13160
H          6.43919        2.94600        1.43769
