20

C          1.08567       -0.03656       -0.05401
N          2.53832       -0.12066        0.05498
C          3.17371       -0.85097       -1.03497
C          3.23347        0.65734       -0.96690
C          4.49284        1.40645       -0.60783
C          4.45700        2.95294       -0.51314
N          5.48422        2.86485        0.54842
C          4.98839        1.50218        0.85826
H          0.63199       -0.73338        0.65848
H          0.69165       -0.27550       -1.04887
H          0.74758        0.97102        0.21093
H          2.55360       -1.30885       -1.79612
H          4.06252       -1.41205       -0.77393
H          2.65531        1.21467       -1.69523
H          5.29744        1.07397       -1.28400
H          3.50185        3.36902       -0.17126
H          4.77630        3.48727       -1.41224
H          5.37238        3.53485        1.30760
H          4.20100        1.49204        1.62176
H          5.76539        0.78747        1.14178
