19

C          0.94800       -0.16738       -0.27848
C          2.45542       -0.02337       -0.37921
N          3.09933       -1.32534       -0.38141
C          4.45923       -1.46198       -0.42535
N          5.34599       -0.64053        0.00860
C          4.96525       -2.70467       -1.05531
C          5.78305       -3.67673       -0.25032
N          4.38306       -3.96133       -0.55598
H          0.47609        0.82073       -0.26253
H          0.66205       -0.69702        0.63598
H          0.54524       -0.72285       -1.13143
H          2.80724        0.57252        0.46951
H          2.71087        0.51275       -1.29978
H          2.60410       -2.03455       -0.91769
H          4.88822        0.16003        0.44578
H          5.15714       -2.65695       -2.12087
H          6.02299       -3.42389        0.77581
H          6.53021       -4.25711       -0.77549
H          3.81251       -3.77921        0.27283
