18

C          1.41962       -0.29335       -0.18630
N          2.80129        0.03156       -0.50926
N          3.08977        1.30925       -0.91114
C          4.26439        1.59593       -0.45707
C          4.86686        0.49012        0.41829
C          5.86265       -0.51428       -0.18074
C          4.71627       -1.51699       -0.39716
C          3.77522       -0.60146        0.40412
H          0.77647        0.58968       -0.27976
H          1.29556       -0.66766        0.83554
H          1.04348       -1.05231       -0.87861
H          4.78925        2.54672       -0.62607
H          5.14021        0.84497        1.41761
H          6.36474       -0.18510       -1.09550
H          6.62183       -0.85563        0.53200
H          4.89451       -2.49332        0.06626
H          4.45962       -1.67962       -1.45006
H          3.44002       -0.94973        1.38391
