23

C          0.89568        0.03610       -0.05451
C          2.41320       -0.07820       -0.07970
N          3.00114        1.17023       -0.56335
C          4.46938        1.15841       -0.54286
C          5.06216        0.12334       -1.50350
C          4.95127        2.52744       -0.95554
C          5.75884        3.30597       -0.21637
C          6.26238        4.64183       -0.65900
H          0.45380       -0.90886        0.27897
H          0.49922        0.25815       -1.05126
H          0.56601        0.82324        0.63128
H          2.67525       -0.91263       -0.73755
H          2.77173       -0.31038        0.92936
H          2.68468        1.93608        0.03337
H          4.81917        0.93939        0.47421
H          4.65801        0.23551       -2.51678
H          4.85787       -0.89873       -1.16895
H          6.15179        0.22650       -1.56711
H          4.62356        2.87231       -1.93458
H          6.09473        2.96568        0.76036
H          5.88541        4.92060       -1.64809
H          7.35610        4.62919       -0.70337
H          5.95638        5.41296        0.05397
