16

C          1.00457        0.07007        0.07119
C          2.52457        0.07007        0.07119
C          3.82843        0.07007        0.07119
C          5.34843        0.07007        0.07119
C          6.11189       -1.03164        0.07209
C          7.55529       -0.62347        0.07398
C          7.45891        0.87811        0.07398
C          6.16997        1.25162        0.07234
H          0.63144       -0.72829       -0.57629
H          0.63144        1.02999       -0.29646
H          0.63144       -0.09148        1.08633
H          5.75526       -2.04987        0.07221
H          8.06974       -0.98708       -0.82036
H          8.06717       -0.98703        0.96979
H          8.30825        1.54437        0.07542
H          5.79049        2.26108        0.07232
