16

C          0.98995        0.01900       -0.09766
C          2.50995        0.01900       -0.09766
C          3.81380        0.01900       -0.09766
C          5.33380        0.01900       -0.09766
C          5.86429        1.18363       -0.88512
C          6.59485        0.73924       -1.92145
C          6.59396       -0.70302       -1.91981
C          5.86417       -1.14607       -0.88486
H          0.61688        0.70962       -0.85904
H          0.61679        0.33304        0.88109
H          0.61685       -0.98566       -0.31512
H          5.72227        0.01928        0.92558
H          5.68583        2.21939       -0.63967
H          7.10052        1.34704       -2.65621
H          7.09963       -1.31179       -2.65377
H          5.68584       -2.18139       -0.63795
