17

C          1.05600        0.00974        0.07156
N          2.49604       -0.00708        0.07359
C          3.33936        1.09197        0.07979
C          4.60282        0.64411        0.08572
N          4.57334       -0.74540        0.08348
C          5.72750       -1.60674        0.09396
C          3.24487       -1.18515        0.07630
N          2.78662       -2.38503        0.07332
H          0.66738        1.03382        0.06910
H          0.66452       -0.49492        0.96094
H          0.66674       -0.49833       -0.81683
H          2.96248        2.10236        0.07982
H          5.52911        1.19678        0.09191
H          6.66013       -1.03230        0.10051
H          5.73504       -2.24759       -0.79367
H          5.72085       -2.24470        0.98373
H          3.56995       -3.03769        0.07637
