23

C          0.99818       -0.02722        0.13912
C          2.51796        0.02928        0.09083
N          2.92994        1.42866        0.07441
C          4.38044        1.58331       -0.01466
C          4.82652        3.03898       -0.07444
C          3.96973        4.08041       -0.09128
C          6.33705        3.20610       -0.12855
C          6.87538        4.63295       -0.18427
H          0.65455       -1.06522        0.17625
H          0.55852        0.44319       -0.74778
H          0.60881        0.48879        1.02438
H          2.86707       -0.48981       -0.80890
H          2.92949       -0.48473        0.96678
H          2.61353        1.87711        0.93341
H          4.74943        1.07582       -0.91472
H          4.85105        1.11023        0.85657
H          2.89463        3.93711       -0.07664
H          4.30019        5.11138       -0.13643
H          6.71134        2.67042       -1.01042
H          6.77260        2.71538        0.75082
H          6.51255        5.16181       -1.07212
H          7.96905        4.62206       -0.22913
H          6.58465        5.20207        0.70522
