21

C          1.06128        0.07413       -0.05385
C          2.59115        0.03040       -0.01178
N          3.01558       -0.60800        1.23808
C          4.46527       -0.58922        1.40878
C          4.82936       -1.25598        2.69933
C          5.59750       -2.35179        2.78896
C          3.09755       -0.71750       -1.22002
C          3.94444       -0.19973       -2.12099
H          0.66292        0.68105        0.76718
H          0.62163       -0.92760        0.02529
H          0.70770        0.51653       -0.99279
H          2.94824        1.06889       -0.02409
H          2.68805       -1.57116        1.25858
H          4.83064        0.44430        1.43721
H          4.97046       -1.09883        0.58047
H          4.45379       -0.79258        3.60948
H          5.99825       -2.84068        1.90692
H          5.84030       -2.78150        3.75528
H          2.75862       -1.74200       -1.34706
H          4.32185        0.81447       -2.03091
H          4.29086       -0.79233       -2.96194
