17

C          1.12120        0.01431       -0.28546
N          2.55225       -0.03071       -0.11468
C          3.31973       -1.15365        0.07810
C          4.58395       -0.82975        0.38234
C          4.76402        0.66592        0.44137
N          5.03312        1.10615        1.80909
C          3.32872        1.10023        0.03045
N          2.96973        2.33253       -0.11303
H          0.69215       -0.99184       -0.34066
H          0.85508        0.54762       -1.20334
H          0.65634        0.52803        0.56325
H          2.89180       -2.14095       -0.01775
H          5.37832       -1.53369        0.57963
H          5.50313        1.03834       -0.27377
H          4.32528        0.68111        2.41120
H          4.84365        2.10538        1.87157
H          3.77710        2.94563        0.03994
