18

C          0.88765        0.11224        0.11121
C          2.22708        0.04887        0.00929
N          2.90046       -0.09259       -1.19134
C          2.49414        0.18493       -2.45805
N          3.17806        0.00779       -3.53395
C          3.07251        0.09026        1.22424
C          4.43112        0.74821        1.22891
C          3.27152        1.43736        1.88134
H          0.23281        0.04532       -0.74969
H          0.40824        0.20666        1.08033
H          3.86122       -0.39281       -1.08412
H          1.48563        0.62421       -2.53175
H          4.08630       -0.40298       -3.31197
H          2.94238       -0.76559        1.88249
H          4.82484        1.19624        0.32404
H          5.19317        0.32758        1.87595
H          2.87815        2.32290        1.39201
H          3.24417        1.48402        2.96314
