15

C          1.03558       -0.79734        0.70898
C          2.53349       -0.75995        0.67433
N          3.15999        0.34361        0.89380
N          4.51975        0.26680        0.94374
C          5.33479        1.35724        0.79035
C          6.62265        0.88556        0.86610
N          6.63315       -0.45976        1.11767
C          5.36239       -0.79552        1.18992
H          0.68571       -1.68938        0.18542
H          0.61947        0.09554        0.23377
H          0.70719       -0.84559        1.75065
H          3.02844       -1.73095        0.48761
H          4.92621        2.34197        0.61714
H          7.54202        1.44535        0.75928
H          5.00220       -1.78478        1.43154
