18

C          0.84272        0.05560        0.03179
C          2.34464        0.06286        0.12478
N          3.06565       -0.08322        1.19361
N          2.32590       -0.24214        2.35793
C          3.10738       -0.39586        3.37261
C          3.08413        0.20623       -1.15771
C          2.92451        1.44376       -2.00955
C          4.21168        1.20563       -1.27968
H          0.35853       -0.06689        1.00202
H          0.53104       -0.76681       -0.61863
H          0.50024        0.99704       -0.40634
H          2.67953       -0.53814        4.37659
H          4.20783       -0.39435        3.29220
H          3.21957       -0.73496       -1.68237
H          2.29244        2.25016       -1.65550
H          2.92232        1.32015       -3.08656
H          4.43688        1.83419       -0.42474
H          5.08286        0.91325       -1.85394
