20

C          1.02885        0.11665        0.04723
C          2.55525        0.04221        0.14848
C          3.10201        1.40859        0.57806
C          2.98055       -1.08936        1.04517
C          3.69493       -1.06305        2.18660
C          3.86546       -2.40366        2.68712
C          3.26743       -3.26813        1.85705
C          2.63989       -2.52441        0.71525
H          0.72098        0.94943       -0.59432
H          0.56963        0.26068        1.03170
H          0.61285       -0.79779       -0.38916
H          2.95176       -0.16331       -0.85450
H          2.73749        1.69483        1.57118
H          2.79179        2.18824       -0.12658
H          4.19732        1.40624        0.60234
H          4.09810       -0.19210        2.68072
H          4.39459       -2.64974        3.59511
H          3.22970       -4.33926        1.98402
H          1.55919       -2.69248        0.69906
H          3.07952       -2.82933       -0.23921
