19

C          1.09419       -0.13652        0.00034
C          2.61968       -0.18743       -0.00427
N          3.13315       -0.11229        1.36036
C          3.09920       -1.42051       -0.64082
C          3.49450       -2.42107       -1.17678
C          3.97199       -3.60139       -1.81855
C          4.93010       -4.50389       -1.09775
C          3.55999       -3.87980       -3.06477
H          0.73263        0.78866        0.46300
H          0.66050       -0.98124        0.54897
H          0.70052       -0.17290       -1.02199
H          2.99954        0.67560       -0.56271
H          2.78389       -0.91003        1.88929
H          2.75874        0.71688        1.81615
H          5.17096       -4.12061       -0.10019
H          5.86975       -4.59184       -1.65361
H          4.49940       -5.50314       -0.97343
H          2.87055       -3.22967       -3.59507
H          3.90633       -4.76584       -3.58691
