22

C          1.43801        1.23356        0.07832
C          2.16134       -0.10235       -0.01735
C          2.00796       -0.88964        1.25206
C          2.96770       -1.35886        2.06118
C          4.42042       -1.16774        1.81847
C          5.01914        0.14822        2.37559
C          6.19059       -0.66425        2.95483
C          5.33862       -1.93307        2.80839
H          1.53052        1.78282       -0.86415
H          1.85835        1.85406        0.87650
H          0.37084        1.09362        0.28157
H          3.21189        0.07580       -0.26767
H          1.73153       -0.68474       -0.83886
H          0.97643       -1.10339        1.53405
H          2.67114       -1.91275        2.94854
H          4.70868       -1.36152        0.77913
H          4.41718        0.65041        3.14102
H          5.30797        0.88353        1.61872
H          6.46973       -0.41102        3.98095
H          7.08880       -0.66078        2.32870
H          4.86654       -2.24562        3.74635
H          5.86267       -2.79329        2.38034
