22

C          2.20576        1.22829        1.29773
C          2.19054        0.01181        0.36832
N          0.82475       -0.19557       -0.12890
C          3.18271        0.15394       -0.81285
C          4.62495        0.17028       -0.36745
C          5.70318        0.38804       -1.13513
C          5.74929        0.64359       -2.60514
N          6.45770        1.89106       -2.84968
H          1.55049        1.06441        2.16083
H          1.86426        2.13230        0.78131
H          3.20906        1.42538        1.68782
H          2.46605       -0.87606        0.95101
H          0.49913        0.64507       -0.60562
H          0.19437       -0.32543        0.66373
H          2.95444        1.06925       -1.37469
H          3.04409       -0.69666       -1.49322
H          4.80912       -0.03112        0.68627
H          6.67962        0.35612       -0.64936
H          4.75224        0.68838       -3.05227
H          6.29293       -0.17564       -3.08867
H          5.92668        2.65468       -2.43411
H          6.47537        2.07091       -3.85165
