21

C          2.38263       -1.31123       -0.50549
C          2.58500        0.09462        0.03309
N          3.05208        0.04479        1.40925
C          2.05413        0.11400        2.46828
C          4.38673        0.14516        1.73567
N          4.86394        0.20388        2.93873
N          6.19412        0.41834        3.01803
C          6.80433        0.26805        4.32766
H          2.03044       -1.27575       -1.54216
H          1.64202       -1.85856        0.08694
H          3.31778       -1.88060       -0.48262
H          1.64484        0.65399       -0.03624
H          3.30468        0.62879       -0.60014
H          1.03593        0.06148        2.07373
H          2.15059        1.05690        3.01888
H          2.18449       -0.71733        3.16667
H          5.03822        0.19839        0.84317
H          6.74812       -0.04415        2.29739
H          6.06556        0.34635        5.13347
H          7.54970        1.05613        4.48090
H          7.30182       -0.70370        4.41596
