19

C          1.17744       -0.01649        0.00671
C          2.69417       -0.06809        0.06380
N          3.09467       -1.37724        0.58731
C          4.34889       -1.61468        0.42207
N          4.95632       -2.77562        0.80461
N          6.19589       -3.14966        0.38454
C          6.55941       -4.33145        0.75961
C          7.88103       -4.88916        0.33221
H          0.84096        0.96837       -0.33052
H          0.74036       -0.21269        0.99123
H          0.78846       -0.76891       -0.68744
H          3.05978        0.72615        0.72418
H          3.09561        0.10068       -0.94269
H          5.04733       -0.90212       -0.05493
H          4.30658       -3.45533        1.19301
H          5.93347       -4.97484        1.40339
H          8.39945       -4.19935       -0.33784
H          7.71133       -5.83931       -0.18100
H          8.49312       -5.07372        1.21880
