19

C          1.11046        0.40296        1.22173
C          2.50486        0.11685        0.68812
N          3.12813        1.36409        0.33837
C          4.45309        1.62061        0.22838
N          5.37113        0.73435        0.04185
N          4.78579        2.93772        0.33446
C          4.13228        3.94860        0.99470
C          4.54302        5.20530        1.17448
H          0.62896       -0.51785        1.56244
H          0.48010        0.85528        0.44778
H          1.14912        1.10340        2.06427
H          2.44876       -0.54139       -0.18414
H          3.08636       -0.38979        1.46590
H          2.52595        2.08629       -0.03782
H          4.92796       -0.18244       -0.02247
H          5.77114        3.10768        0.15249
H          3.19094        3.63664        1.44344
H          5.47627        5.56900        0.76078
H          3.93700        5.89793        1.74948
