25

C          1.06594        0.10678        0.29070
C          2.58514        0.00984        0.15334
N          3.07726       -0.28291       -1.20871
C          2.51487        0.62267       -2.22882
C          2.96285        2.07971       -2.15544
C          4.56106       -0.39149       -1.25721
C          5.10599       -1.44863       -0.27847
C          5.08065       -0.76490       -2.65720
H          0.78781        0.10440        1.35023
H          0.56824       -0.74473       -0.18537
H          0.67662        1.03214       -0.14417
H          2.87669       -0.80698        0.82152
H          3.04063        0.92590        0.54830
H          1.41963        0.58916       -2.19151
H          2.73402        0.23393       -3.22974
H          2.82761        2.50338       -1.15640
H          2.36908        2.68399       -2.84973
H          4.01387        2.19175       -2.43967
H          5.00853        0.57157       -0.97878
H          4.61843       -2.41827       -0.42864
H          4.97186       -1.14734        0.76517
H          6.18356       -1.59119       -0.41855
H          4.60877       -1.68303       -3.02473
H          6.16406       -0.93112       -2.63829
H          4.90571        0.03117       -3.38739
