18

C          1.05758       -0.13483       -0.36551
C          2.54195       -0.02202       -0.06885
N          2.92513        0.50087        1.24679
C          1.91551        0.80261        2.26140
C          1.52455        2.22049        2.24069
C          1.18519        3.37371        2.29031
C          4.25299        0.65260        1.56984
N          5.29277        0.37639        0.86669
H          0.91692       -0.50952       -1.38587
H          0.55429        0.83356       -0.29468
H          0.56249       -0.84316        0.30540
H          2.98796        0.61760       -0.84037
H          2.98310       -1.01972       -0.18491
H          2.31488        0.56011        3.25595
H          1.03257        0.16597        2.16083
H          0.88138        4.39306        2.36096
H          4.41232        1.05873        2.58453
H          5.01987        0.00828       -0.04429
