19

C          1.11441       -0.11320        0.21692
C          2.57592        0.10638       -0.12542
N          2.88710        0.79712       -1.39218
C          1.92453        1.38015       -2.20970
N          0.65055        1.20474       -2.20896
C         -0.07229        1.97629       -3.21109
N          4.24474        1.05828       -1.49222
C          4.76507        1.03193       -2.67276
H          1.02999       -0.65533        1.16453
H          0.60469       -0.71208       -0.54396
H          0.58338        0.83867        0.34384
H          3.07023       -0.87116       -0.14481
H          3.03053        0.67130        0.69837
H          2.38338        2.05953       -2.95005
H         -1.14667        1.89808       -3.01052
H          0.10885        1.57825       -4.21379
H          0.18998        3.03920       -3.18170
H          5.84383        1.22715       -2.78908
H          4.20472        0.80141       -3.59296
