16

C          0.95620       -0.04155        0.02103
N          2.39812       -0.00997        0.02545
C          3.19520        1.09434        0.02455
C          4.48616        0.62090        0.03041
C          4.36907       -0.79210        0.03452
C          5.48291       -1.69134        0.04133
C          5.39506       -3.02920        0.04488
N          3.08185       -1.16618        0.03126
H          0.56953        0.98050        0.01955
H          0.61998       -0.56628        0.91879
H          0.62558       -0.56690       -0.87845
H          2.79282        2.09719        0.02003
H          5.39034        1.21267        0.03162
H          6.47461       -1.24694        0.04382
H          4.42959       -3.52752        0.04261
H          6.28455       -3.64833        0.05010
