17

C          0.88344        0.03818        0.05499
C          2.22620        0.01524        0.13230
N          2.93906        0.07044        1.31780
C          2.54041       -0.17117        2.59431
N          3.26635       -0.06467        3.65025
C          3.06709       -0.08830       -1.07977
C          3.00945        0.94351       -2.17307
N          4.14151        0.89478       -1.25180
H          0.25157        0.13286        0.93198
H          0.37709       -0.01800       -0.90302
H          3.93331        0.21746        1.17557
H          1.49534       -0.50803        2.69438
H          4.20399        0.25928        3.40615
H          3.31235       -1.10533       -1.37180
H          2.34770        1.79513       -2.07983
H          3.20506        0.61474       -3.18693
H          4.05882        1.66493       -0.58560
