18

C          1.14424        0.05447        0.02446
N          2.60066        0.02689       -0.01933
C          3.07019       -0.96571       -0.97722
C          4.56709       -1.00880       -0.95849
C          5.34566       -1.83120       -0.22513
C          4.82421       -2.82006        0.77815
C          6.76817       -1.74992       -0.37417
N          7.92044       -1.69848       -0.49297
H          0.81508        0.80262        0.75205
H          0.73489       -0.91394        0.33157
H          0.72358        0.32944       -0.94783
H          2.95079       -0.20886        0.90851
H          2.75014       -0.69247       -1.99038
H          2.64396       -1.95406       -0.77373
H          5.04120       -0.29640       -1.63516
H          3.73539       -2.81054        0.87377
H          5.23009       -2.59729        1.77225
H          5.12189       -3.83767        0.50491
