20

C          0.94469        0.09439       -0.11074
N          2.40796        0.11230       -0.03308
C          2.92334        0.90874       -1.15804
C          2.89026        0.64139        1.27467
C          2.40087       -0.18714        2.50751
N          2.83296        0.34977        3.81081
C          4.41026        0.64139        1.27467
C          5.71412        0.64139        1.27467
H          0.61421       -0.21657       -1.10928
H          0.50810        1.07698        0.10023
H          0.51866       -0.64119        0.57737
H          2.54203        0.52129       -2.11032
H          4.01345        0.84362       -1.23880
H          2.64061        1.96471       -1.07989
H          2.55095        1.67957        1.39689
H          2.75546       -1.22182        2.42317
H          1.30772       -0.21499        2.53505
H          3.85325        0.38538        3.82749
H          2.56472       -0.30893        4.54115
H          6.77943        0.63911        1.26736
