19

C          0.94813        0.00018       -0.06115
N          2.40261        0.03599       -0.04304
C          2.88396        1.39276        0.18834
C          4.40396        1.39276        0.18834
C          5.70782        1.39276        0.18834
C          7.22782        1.39276        0.18834
C          7.72877        2.36056        1.21712
C          8.51698        3.41024        0.95001
H          0.61009       -1.02497       -0.24084
H          0.53817        0.63375       -0.85461
H          0.53294        0.31886        0.90077
H          2.76494       -0.28874       -0.93818
H          2.53914        1.76760        1.15865
H          2.53483        2.07580       -0.59454
H          7.58487        1.64732       -0.81569
H          7.58678        0.38575        0.42666
H          7.43370        2.17166        2.24753
H          8.84220        3.63880       -0.06019
H          8.85151        4.06907        1.74552
