18

C          1.51652        0.79272        0.77474
C          2.37891        0.05786        0.06129
C          3.16747       -1.09239        0.62241
C          4.67454       -0.86138        0.50509
C          5.43454       -2.03968        1.09196
C          6.08647       -3.05042        1.59538
C          6.80009       -4.14764        2.14243
C          8.13612       -4.16048        2.17948
H          0.96556        1.60706        0.31383
H          1.33566        0.60015        1.82808
H          2.51722        0.28364       -0.99428
H          2.88775       -2.00291        0.07754
H          2.90064       -1.26719        1.67280
H          4.96828        0.04915        1.04044
H          4.96679       -0.73991       -0.54454
H          6.23141       -4.98535        2.53449
H          8.72578       -3.33431        1.79354
H          8.67022       -5.00570        2.60051
