16

C          1.18095       -0.21598       -0.21511
C          2.47603       -0.04122        0.07054
C          3.07835        0.88221        1.04030
C          2.35547        1.83084        1.89497
C          1.19979        1.61967        2.53918
C          4.43327        0.89683        1.05737
C          5.24296        1.71845        1.89543
C          5.94383        2.40188        2.59095
H          0.88762       -0.94185       -0.96815
H          0.38195        0.33506        0.26283
H          3.17375       -0.65205       -0.50363
H          2.83481        2.79698        2.05081
H          0.65644        0.68355        2.48559
H          0.77384        2.40191        3.16200
H          4.99649        0.23751        0.39810
H          6.55654        3.00308        3.21900
