20

C          1.09123        0.01766       -0.08753
N          2.54562        0.02988       -0.04518
C          3.02458        0.83542        1.07120
C          4.54458        0.83542        1.07120
C          5.84843        0.83542        1.07120
C          7.36843        0.83542        1.07120
C          7.90709       -0.01083        2.22632
N          9.37051       -0.03157        2.24184
H          0.75523       -0.58586       -0.93632
H          0.68230        1.02608       -0.20881
H          0.67352       -0.43062        0.81994
H          2.91026        0.42521       -0.91067
H          2.67929        0.42212        2.02557
H          2.67510        1.87118        0.99138
H          7.72104        1.86990        1.15652
H          7.71895        0.44117        0.11017
H          7.53425       -1.03890        2.14880
H          7.54931        0.39042        3.18154
H          9.71372       -0.47585        1.39063
H          9.68620       -0.61932        3.01306
