20

C          0.99132        0.24471       -0.69335
N          2.25159        0.09358        0.01338
C          3.02654       -1.07023       -0.42075
C          4.34640       -1.13135        0.38010
C          3.98220       -1.89252        1.66120
C          3.00032       -2.91911        1.17966
N          1.57808       -2.65632        1.09506
C          2.38264       -2.40207       -0.09673
H          0.54598        1.20725       -0.42215
H          0.27364       -0.53660       -0.42739
H          1.13609        0.24664       -1.77818
H          2.09616        0.07519        1.01746
H          3.25471       -0.99219       -1.49014
H          4.78914       -0.15067        0.57938
H          5.08107       -1.71798       -0.18755
H          3.52078       -1.22334        2.39704
H          4.86505       -2.34787        2.11852
H          3.34316       -3.94347        1.21225
H          1.31492       -1.78174        1.54751
H          2.29619       -3.08292       -0.93216
