21

C          0.77001       -0.46010        0.32236
N          2.18426       -0.36132       -0.01160
C          2.84389        0.75617        0.66725
C          4.29162        1.06833        0.39676
C          5.04006        0.61377       -0.82431
C          4.76232        1.71390       -1.85178
C          3.33970        2.18700       -1.53466
C          3.22385        2.03036       -0.04387
H          0.33205       -1.32550       -0.18442
H          0.22159        0.43418        0.00937
H          0.62881       -0.60469        1.39781
H          2.28626       -0.30287       -1.02257
H          2.55847        0.86099        1.71541
H          4.93292        1.35155        1.22031
H          4.67447       -0.35447       -1.18147
H          6.11300        0.51917       -0.63033
H          4.87694        1.37140       -2.88374
H          5.46341        2.54281       -1.69129
H          2.59758        1.58074       -2.06223
H          3.20179        3.22907       -1.84163
H          3.13411        2.97084        0.48336
