22

C          1.10431        0.18519       -0.13976
C          2.62242        0.04095       -0.02329
C          3.05602       -1.35749       -0.48924
C          4.57648       -1.47973       -0.54790
C          5.15669       -0.54464       -1.60559
C          4.62137        0.85194       -1.52941
C          4.65315        1.65026       -0.25601
C          3.33390        1.13354       -0.78937
H          0.59184       -0.58643        0.44389
H          0.77650        0.10095       -1.18198
H          0.77780        1.16269        0.23151
H          2.87845        0.14452        1.03974
H          2.63748       -1.57629       -1.48001
H          2.65638       -2.11215        0.19925
H          4.85788       -2.51214       -0.78431
H          5.00421       -1.25137        0.43549
H          4.91727       -0.94599       -2.59844
H          6.24947       -0.52720       -1.52884
H          4.81070        1.39697       -2.44887
H          4.84135        2.71617       -0.32899
H          5.07542        1.19799        0.63396
H          2.66097        1.86431       -1.22538
