21

C          1.20771        0.24497       -0.93266
N          2.34711        0.02931       -0.04274
C          3.23936       -0.99065       -0.59258
C          3.07752        1.24759        0.33560
C          2.23671        2.27918        1.11616
C          1.92741        3.41747        0.14165
C          2.98539        3.26086       -0.89834
C          3.60306        2.07764       -0.80192
H          0.69876       -0.70453       -1.13688
H          1.49741        0.67723       -1.89661
H          0.45560        0.89082       -0.46903
H          2.70142       -1.93584       -0.72734
H          4.06302       -1.20199        0.09832
H          3.66339       -0.70030       -1.55984
H          3.91378        0.95879        0.98609
H          2.83645        2.67224        1.94861
H          1.33039        1.85991        1.56611
H          1.98591        4.38925        0.64046
H          0.93491        3.30982       -0.30590
H          3.19442        4.00394       -1.65574
H          4.38810        1.74326       -1.46493
