20

C          2.84293       -0.44557       -1.24248
N          2.20631        0.02653       -0.01826
C          2.97817        1.14981        0.54516
C          2.80087        2.44065       -0.29169
N          2.62594        3.17573        0.98905
C          2.10304        1.91455        1.58557
C          2.52246        1.81056        2.99988
C          1.73301        1.21808        3.90376
H          2.31596       -1.33400       -1.60476
H          3.89101       -0.71622       -1.08122
H          2.78526        0.30727       -2.03527
H          2.13994       -0.75330        0.63680
H          4.00719        0.92458        0.85048
H          1.91497        2.48124       -0.93721
H          3.67607        2.74572       -0.87312
H          1.93790        3.92520        0.95131
H          1.01697        1.81255        1.44146
H          3.47813        2.23249        3.29865
H          0.76987        0.79280        3.63682
H          2.03505        1.15498        4.94423
