19

C          1.20591       -0.48633        0.26234
N          2.47338        0.14569       -0.08348
C          2.98429        0.99912        0.99665
C          4.26223        1.75813        0.78343
C          2.96329        2.50493        0.86701
N          2.64566        3.34081        2.01586
C          1.35888        3.56795        2.39908
N          0.27415        3.10186        1.88996
H          0.88193       -1.13242       -0.55914
H          0.42277        0.25679        0.44012
H          1.30991       -1.11331        1.15397
H          2.36253        0.66362       -0.95470
H          2.85953        0.58843        1.99828
H          4.74800        1.68601       -0.18264
H          4.95203        1.81395        1.61689
H          2.60626        2.93649       -0.06497
H          3.38503        3.81640        2.52251
H          1.29451        4.24504        3.26750
H          0.51179        2.48695        1.10761
