20

C          1.21290        0.04607       -0.59500
N          2.43093       -0.01225        0.20672
C          3.12024        1.25902        0.47032
C          2.21598        2.41650        0.93723
C          3.00951        3.62111        1.36929
C          2.91157        4.82343        0.78818
N          3.01171       -1.23761        0.28745
C          4.29842       -1.32343        0.23612
H          0.81249        1.04860       -0.75448
H          0.42575       -0.53368       -0.10067
H          1.38066       -0.38576       -1.58799
H          3.69166        1.56496       -0.41477
H          3.84798        1.08923        1.27568
H          1.60250        2.08720        1.78456
H          1.53044        2.71679        0.13857
H          3.67684        3.49548        2.21919
H          2.24781        4.99952       -0.05315
H          3.49106        5.66706        1.15115
H          4.76503       -2.31830        0.31763
H          4.98803       -0.47638        0.09723
