22

C          1.33876        0.11528        1.89230
N          2.73525       -0.24913        1.68830
C          2.89092       -1.05809        0.47920
C          4.35522       -1.41374        0.27980
C          4.95333       -2.27336        1.37047
C          4.81063       -1.73889       -1.12814
C          5.20264       -0.42951       -0.50947
N          6.61282       -0.18532       -0.20011
H          1.24465        0.67969        2.82663
H          0.69786       -0.76926        1.97173
H          0.97395        0.75387        1.08289
H          3.04716       -0.79120        2.49313
H          2.52149       -0.49232       -0.38692
H          2.30416       -1.97806        0.54644
H          5.07771       -1.70218        2.29602
H          5.93301       -2.67653        1.09659
H          4.29985       -3.12803        1.57777
H          5.58320       -2.48668       -1.27380
H          4.08102       -1.72154       -1.93038
H          4.69899        0.44163       -0.92698
H          6.93778       -0.78589        0.55509
H          6.72651        0.76603        0.15429
