23

C          0.95916       -0.10742       -0.07983
N          2.41506       -0.06960       -0.14953
C          2.93301        1.09331        0.59323
C          4.48610        1.13978        0.59406
N          5.03109        1.13578       -0.78091
C          5.00687        2.37440        1.37461
N          4.58916        2.34345        2.78227
C          5.06733        3.51290        3.50486
H          0.59337       -1.01318       -0.57239
H          0.51579        0.75656       -0.58528
H          0.60777       -0.13298        0.95728
H          2.69992       -0.00184       -1.12364
H          2.57238        1.04822        1.62718
H          2.54319        2.01560        0.14245
H          4.86404        0.23573        1.09039
H          4.55150        1.84691       -1.32928
H          4.79229        0.23967       -1.20242
H          4.63619        3.28959        0.89667
H          6.10421        2.39324        1.32388
H          4.96518        1.50189        3.22238
H          4.66067        4.43561        3.07905
H          6.16026        3.56662        3.50486
H          4.73320        3.45587        4.54581
