16

C          1.07021       -0.07939       -0.09383
N          2.42687       -0.10609        0.42647
C          2.81480        0.83490        1.21944
C          1.97497        1.98171        1.69143
C          2.80000        2.64718        2.50992
C          4.13510        2.06411        2.62420
C          5.00513        1.94620        1.41336
N          4.10690        0.84681        1.76806
H          0.96224       -0.86638       -0.84674
H          0.83517        0.86916       -0.58719
H          0.34024       -0.27942        0.69700
H          0.95432        2.18640        1.43438
H          2.51716        3.54304        3.04638
H          4.53131        1.86173        3.61009
H          6.04687        1.69179        1.54951
H          4.75274        2.45044        0.49060
