19

C          0.99675        2.21560       -0.85922
N          2.45366        2.30479       -0.82679
C          3.05856        0.96634       -0.85387
C          4.58687        1.03626       -0.88582
C          5.22546       -0.34657       -0.93835
N          5.77786       -0.52157        0.40106
N          5.69805        0.59594        1.15944
C          5.11646        1.49374        0.43470
H          0.57116        3.22227       -0.80529
H          0.61143        1.64236       -0.00939
H          0.64882        1.75792       -1.79025
H          2.72050        2.78935        0.03023
H          2.71625        0.43722       -1.75230
H          2.72133        0.39302        0.01942
H          4.95347        1.68824       -1.68509
H          6.04157       -0.36532       -1.66907
H          4.52112       -1.14358       -1.19623
H          5.41779       -1.34402        0.88678
H          4.96363        2.52945        0.77254
