18

C          2.16648       -1.26113        0.67711
N          2.30952        0.04661        0.04890
C          3.06175       -0.00209       -1.22363
C          2.44089       -0.69196       -2.41565
C          2.48688        0.80445       -2.38960
N          3.31364        1.50444       -3.38633
C          4.49705       -0.06961       -1.07961
C          5.68261       -0.12400       -0.90018
H          1.64996       -1.14800        1.63523
H          3.13507       -1.73279        0.87127
H          1.56255       -1.93208        0.05838
H          2.79215        0.67266        0.69347
H          1.46821       -1.15534       -2.30087
H          3.08657       -1.21889       -3.10796
H          1.53922        1.30495       -2.19686
H          4.19378        1.01220       -3.53787
H          3.57228        2.42582       -3.03465
H          6.73114       -0.17259       -0.71566
