20

C          1.10843       -0.16290       -0.37225
N          2.54020       -0.31106       -0.13617
C          3.25686        0.58379       -0.71853
N          4.62462        0.68300       -0.66972
C          5.41576       -0.21533        0.15722
C          5.35794        1.51710       -1.61053
C          5.64666        2.88955       -1.06843
C          5.32132        3.39501        0.12956
H          0.60768       -1.10589       -0.13126
H          0.87641        0.07153       -1.41751
H          0.69325        0.61472        0.27635
H          2.79937        1.38645       -1.32779
H          4.80103       -0.80250        0.84768
H          6.12434        0.35618        0.76560
H          5.98051       -0.91485       -0.46738
H          4.79160        1.61890       -2.54479
H          6.30812        1.04061       -1.88061
H          6.18767        3.53608       -1.75748
H          4.78059        2.81284        0.86905
H          5.59338        4.41089        0.39827
