18

C          3.34342        1.14761       -0.62165
N          2.67555       -0.10111       -0.30470
C          3.25053       -0.97301        0.55983
C          4.18288       -0.77654        1.56126
C          4.45729       -2.02959        2.15783
C          3.68003       -2.96517        1.51527
N          2.94344       -2.31579        0.55362
C          2.01357       -2.97710       -0.33409
H          2.76881        1.68791       -1.38042
H          4.34362        0.96223       -1.02729
H          3.42293        1.79120        0.25983
H          2.08608       -0.44252       -1.05845
H          4.62134        0.17218        1.83717
H          5.14603       -2.22662        2.96849
H          3.59119       -4.03250        1.66495
H          2.13457       -4.06034       -0.25010
H          2.22671       -2.67213       -1.36158
H          0.99995       -2.69000       -0.04464
