21

C          2.05316        1.06402       -0.48273
N          2.22718       -0.28571        0.04821
C          2.81034       -1.21351       -0.93992
C          3.01392       -2.63172       -0.48502
C          2.03538       -2.34445       -1.60085
N          0.58749       -2.54133       -1.28392
C          2.46811       -2.79441       -2.99987
N          1.47823       -2.38241       -3.99159
H          1.86973        1.75467        0.34575
H          1.20118        1.11105       -1.16589
H          2.94975        1.41425       -1.00611
H          1.31980       -0.61662        0.36663
H          3.64211       -0.79098       -1.50620
H          2.63232       -2.92023        0.48626
H          3.95879       -3.10494       -0.72536
H          0.39510       -2.27540       -0.32114
H          0.36492       -3.53513       -1.33717
H          2.55138       -3.88746       -3.00035
H          3.44639       -2.38326       -3.27215
H          0.56183       -2.44641       -3.53976
H          1.47252       -3.04598       -4.76029
