20

C          0.87932       -0.78434        1.45687
N          1.80990       -0.13290        0.55975
C          2.78419       -1.01320       -0.08529
C          2.51735       -2.08990       -1.08377
C          2.91572       -0.73157       -1.57887
C          4.25354       -0.21448       -2.07258
C          5.15399       -0.86258       -3.08420
N          4.32848        0.27324       -3.45859
H          0.26601       -0.01709        1.94167
H          1.39279       -1.35189        2.23728
H          0.20340       -1.44421        0.90688
H          2.29926        0.61229        1.05636
H          3.69348       -1.17276        0.49457
H          3.23797       -2.89675       -1.17411
H          1.49161       -2.41523       -1.21973
H          2.07334       -0.19690       -2.02877
H          4.75186        0.44814       -1.36370
H          4.88178       -1.82470       -3.49657
H          6.21474       -0.66145       -3.01449
H          3.50443       -0.02693       -3.98241
