19

C          1.19985       -0.43874        0.25234
N          2.50065        0.16746       -0.00193
C          2.98314        0.95478        1.14049
C          4.27315        1.71039        1.00334
C          2.97117        2.46585        1.08449
C          2.59571        3.21324        2.30074
N          3.41100        4.11444        2.74277
N          2.96083        4.75487        3.84588
H          0.88702       -1.01825       -0.62133
H          0.43710        0.32060        0.45105
H          1.24777       -1.12548        1.10323
H          2.45392        0.72689       -0.85156
H          2.84309        0.48043        2.11068
H          4.79023        1.69035        0.05153
H          4.93818        1.73855        1.85916
H          2.63992        2.94172        0.16747
H          1.62358        2.97787        2.76952
H          3.68662        5.38555        4.19354
H          2.75387        4.11092        4.61259
