18

C          1.41920        0.04257       -0.03918
N          2.87238       -0.03540        0.11429
C          3.21281       -0.73122        1.14565
N          4.46960       -1.00993        1.64566
C          5.58231       -1.15367        0.70156
C          5.46375        0.07411        1.54248
C          6.26969        0.27401        2.74678
C          7.60448        0.24196        2.84588
H          1.18099        0.56498       -0.97102
H          0.97134        0.60909        0.78516
H          0.96236       -0.95181       -0.08842
H          2.45027       -1.19765        1.79649
H          5.31057       -1.10279       -0.34453
H          6.27354       -1.93461        0.98576
H          5.11789        0.98133        1.05616
H          5.70227        0.48044        3.65318
H          8.23702        0.04557        1.98704
H          8.08816        0.40892        3.80355
