21

C          0.93418        0.08668        0.07527
N          2.39042        0.02317        0.00412
C          2.80866       -0.91639       -1.04282
C          4.32700       -1.00264       -1.14529
C          4.85381       -1.97554       -2.20219
N          4.07830       -2.66052       -2.98103
N          6.21464       -2.10226       -2.28744
C          6.89839       -2.91941       -3.26132
H          0.63474        0.79318        0.85377
H          0.50242       -0.88905        0.32014
H          0.50797        0.43751       -0.87080
H          2.75437       -0.28579        0.90577
H          2.40338       -0.58625       -2.00666
H          2.40143       -1.91086       -0.82672
H          4.74991       -1.31484       -0.18033
H          4.74635       -0.01318       -1.37260
H          3.08876       -2.47989       -2.82415
H          6.79840       -1.48086       -1.74002
H          6.22377       -3.55745       -3.84004
H          7.61487       -3.57068       -2.75107
H          7.45034       -2.28406       -3.95986
