23

C          0.99496       -0.20053       -0.04488
N          2.44543       -0.05743       -0.02969
C          2.91865        1.25444       -0.52597
C          2.39978        2.43110        0.35742
N          2.76268        3.76504       -0.13611
C          4.47057        1.25797       -0.57042
C          5.07324        0.23009       -1.53191
N          6.53126        0.32794       -1.53694
H          0.73665       -1.24754        0.14505
H          0.56603        0.07618       -1.01444
H          0.52349        0.38612        0.74778
H          2.83382       -0.79838       -0.61215
H          2.54951        1.39792       -1.55058
H          2.77115        2.31898        1.38386
H          1.30738        2.40984        0.40454
H          3.77194        3.88755       -0.07262
H          2.36748        4.46152        0.49542
H          4.86467        1.09254        0.44160
H          4.82365        2.24787       -0.88371
H          4.69564        0.39603       -2.54664
H          4.80791       -0.78884       -1.23701
H          6.81523        1.24893       -1.86761
H          6.91354       -0.34603       -2.19912
