23

C          1.72740        0.05468        0.50726
N          2.61290       -0.77029        1.32469
C          3.37418       -1.81762        0.57937
C          2.41466       -2.82386       -0.09865
C          4.33276       -1.19806       -0.49843
N          5.19342       -0.10868       -0.02382
C          4.25496       -2.59882        1.62406
N          3.48067       -3.21135        2.71009
H          1.99305        1.11146        0.61753
H          0.69658       -0.06508        0.85297
H          1.75047       -0.16670       -0.56273
H          3.28020       -0.16801        1.80464
H          1.90449       -3.46381        0.62963
H          2.96408       -3.47919       -0.78450
H          1.63372       -2.33492       -0.68898
H          4.97578       -1.98685       -0.91218
H          3.74987       -0.81180       -1.34353
H          5.72401       -0.39782        0.79254
H          4.60817        0.67542        0.26827
H          4.97553       -1.91532        2.08847
H          4.83267       -3.38251        1.12017
H          2.76554       -2.53543        2.99381
H          4.07961       -3.37079        3.51566
