18

C          1.59877       -0.01230        0.98716
C          2.42630        0.01456       -0.06579
C          3.15711       -1.19303       -0.60317
C          2.79272       -1.44333       -2.08848
C          3.53473       -2.66467       -2.60631
C          4.17123       -3.71233       -3.05051
C          4.65205       -1.00508       -0.41125
C          5.43455       -1.84341        0.28298
H          1.12016        0.89594        1.34064
H          1.39265       -0.93078        1.52843
H          2.61274        0.96619       -0.56032
H          2.84301       -2.08264       -0.03499
H          3.05778       -0.57869       -2.70964
H          1.71417       -1.61110       -2.19294
H          4.69462       -4.56733       -3.41163
H          5.11066       -0.14267       -0.89155
H          5.03391       -2.73132        0.76408
H          6.50309       -1.67013        0.36723
