23

C          2.93108       -2.82039       -0.34556
N          2.59494       -1.88249       -1.40974
C          3.10429       -0.53789       -1.13917
C          4.61981       -0.43871       -1.16300
C          5.26236        0.04495       -0.08280
C          5.32349       -0.92582       -2.43486
C          4.91528       -0.09540       -3.65706
C          6.85703       -0.96526       -2.35428
H          2.49432       -3.79696       -0.57703
H          2.53243       -2.49480        0.62073
H          4.01207       -2.96735       -0.25770
H          1.58041       -1.82884       -1.48929
H          2.69443       -0.17509       -0.18763
H          2.70374        0.14089       -1.90120
H          4.71986        0.36524        0.80126
H          6.34200        0.13039       -0.03032
H          5.00719       -1.96177       -2.61546
H          5.13700        0.96755       -3.51024
H          3.84553       -0.19332       -3.87013
H          5.44932       -0.43126       -4.55309
H          7.28140        0.03649       -2.22480
H          7.28025       -1.38591       -3.27347
H          7.19364       -1.59653       -1.52477
