22

C          1.81495       -0.19276       -1.49970
N          2.34642        0.14635       -0.18728
C          3.03454        1.44204       -0.17434
C          2.13096        2.64312       -0.41159
C          2.98084        3.78612        0.11023
N          3.70244        3.26515        1.27993
C          3.63809        1.78889        1.20366
C          5.01765        1.18162        1.41810
H          1.34427       -1.18016       -1.45307
H          2.60518       -0.23399       -2.25604
H          1.04438        0.51511       -1.82026
H          3.00203       -0.58074        0.09977
H          3.83430        1.43800       -0.92880
H          1.20300        2.56420        0.16867
H          1.87113        2.77753       -1.46612
H          2.38182        4.66582        0.36293
H          3.71735        4.08749       -0.64479
H          3.21009        3.55684        2.12619
H          2.96790        1.43717        2.00008
H          5.73241        1.53963        0.66831
H          4.97977        0.08966        1.35109
H          5.41012        1.44380        2.40669
