22

C          0.96268       -0.03685       -0.22610
C          2.46292        0.20144       -0.12857
C          3.26181       -1.05054        0.28998
C          3.71620       -0.84100        1.73499
C          3.65294        0.64002        1.95144
C          2.33803        1.25566        2.31559
C          2.82411        1.28460        0.87510
C          3.17707        2.62429        0.30499
H          0.74651       -0.80366       -0.97685
H          0.44998        0.88224       -0.52393
H          0.53593       -0.36870        0.72367
H          2.81354        0.49657       -1.12668
H          4.15111       -1.13390       -0.34780
H          2.69827       -1.98213        0.17152
H          4.72700       -1.23119        1.88914
H          3.04558       -1.36061        2.42945
H          4.58143        1.09807        2.25980
H          2.36825        2.16809        2.90268
H          1.51610        0.60480        2.58941
H          4.13325        2.58177       -0.22485
H          2.40557        2.94678       -0.40335
H          3.25047        3.39609        1.07930
