20

C          1.05235       -1.31012        2.28251
N          2.48115       -1.14249        2.19943
C          3.15957       -0.36040        1.29580
N          2.54300        0.41837        0.46220
C          4.66851       -0.37656        1.23793
C          5.32209       -0.01839       -0.06554
C          5.35488       -0.67566        2.35977
C          6.84406       -0.71433        2.49867
H          0.80896       -2.04875        3.05246
H          0.63968       -1.66231        1.33229
H          0.56972       -0.36764        2.55876
H          3.01599       -1.90318        2.60499
H          1.53775        0.34958        0.60501
H          4.60493        0.15606       -0.87255
H          5.97691       -0.83050       -0.40004
H          5.91913        0.89290        0.04474
H          4.82068       -0.87374        3.28568
H          7.37183       -0.47029        1.57320
H          7.15937       -1.71380        2.81395
H          7.16058        0.00101        3.26436
