16

C          2.81302       -1.36667       -0.23012
N          2.51275        0.04736       -0.07636
C          3.17501        0.65531        1.00624
C          2.94548        2.01089        1.23629
C          3.57886        2.64573        2.30307
C          4.42544        1.91034        3.11905
C          4.59080        0.56714        2.83474
N          3.98493       -0.06644        1.80708
H          2.28899       -1.74834       -1.11255
H          2.46238       -1.94333        0.63248
H          3.88384       -1.54258       -0.38171
H          2.72054        0.57486       -0.91876
H          2.26552        2.56684        0.59924
H          3.40515        3.69988        2.49438
H          4.93722        2.36798        3.95771
H          5.23845       -0.05779        3.44217
