22

C          1.46278       -0.96746       -0.88238
N          2.40091       -1.48437        0.10321
C          3.79246       -1.44827       -0.35469
C          4.71609       -0.63263        0.61592
N          4.09948       -0.30697        1.91468
C          4.25648       -2.88663       -0.43875
C          3.52503       -3.95549       -1.22795
C          4.81501       -3.39324       -1.74681
H          1.31095        0.11258       -0.76736
H          0.49306       -1.45832       -0.75429
H          1.77462       -1.15958       -1.91416
H          2.35551       -0.91928        0.95842
H          3.88326       -0.97675       -1.34245
H          5.67007       -1.14907        0.78675
H          4.95866        0.31989        0.12940
H          4.55935       -0.86413        2.64244
H          4.30257        0.66674        2.14596
H          4.69059       -3.23342        0.49290
H          2.59781       -3.69047       -1.72099
H          3.53480       -4.96394       -0.82854
H          4.75058       -2.76824       -2.63035
H          5.70227       -4.01400       -1.70878
