18

C          1.19861        0.79795       -0.45502
N          2.33765        0.06160        0.05316
C          3.00217        0.46762        1.15550
C          3.06036        1.73977        1.67164
N          3.83819        1.69594        2.79756
C          4.14907        2.82260        3.64655
C          4.28277        0.41663        3.00194
C          3.78626       -0.36747        1.98112
H          0.84259        0.32924       -1.37809
H          1.45822        1.83518       -0.69060
H          0.37672        0.78671        0.26833
H          2.28736       -0.93685       -0.12953
H          2.62144        2.66771        1.33226
H          3.74232        3.73649        3.20635
H          5.23607        2.90326        3.73117
H          3.69877        2.64696        4.62673
H          4.91328        0.16613        3.84509
H          3.96518       -1.42604        1.85974
