21

C          0.93745        0.08141        0.34277
N          2.39137        0.11679        0.21990
C          2.84110        0.95947       -0.89497
C          2.43472        2.43974       -0.66147
C          3.89148        2.83953       -0.96052
C          4.30435        1.39757       -0.60007
C          2.58027        0.37616       -2.23572
C          3.14895       -0.77216       -2.63099
H          0.66270       -0.63751        1.12221
H          0.44369       -0.23145       -0.58231
H          0.53346        1.04971        0.65341
H          2.73213       -0.83991        0.14382
H          2.13623        2.70306        0.36118
H          1.69304        2.85924       -1.34959
H          4.30428        3.62237       -0.31861
H          4.07129        3.10519       -2.00810
H          4.62800        1.29710        0.44437
H          5.08899        0.98048       -1.23746
H          1.91074        0.90679       -2.90832
H          3.82773       -1.32779       -1.99146
H          2.94526       -1.17940       -3.61517
