22

C          0.89118       -0.19477       -0.16190
N          2.33876       -0.12495       -0.01816
C          2.76018        0.90462        0.95314
C          2.29552        0.59234        2.37896
C          4.30196        0.96621        0.89092
N          5.02285       -0.31240        1.10640
C          4.92914        1.90253       -0.12045
C          4.98461        2.23539        1.34160
H          0.64135       -0.86101       -0.99515
H          0.45343        0.78524       -0.37834
H          0.41803       -0.61340        0.73085
H          2.74387        0.12437       -0.92187
H          2.35116        1.87906        0.65431
H          2.58770       -0.41753        2.68837
H          1.20830        0.67189        2.47248
H          2.73878        1.29473        3.09288
H          4.57260       -1.01396        0.51147
H          4.84867       -0.64391        2.05546
H          4.28297        2.49628       -0.75522
H          5.85120        1.59395       -0.60144
H          4.37547        3.05926        1.69382
H          5.94274        2.15314        1.84198
