19

C          1.06753       -0.05713        0.05990
N          2.52422       -0.01906        0.04838
C          3.01231        1.26094       -0.47554
C          4.54768        1.28895       -0.47692
C          5.08292        2.58568       -1.02169
C          5.86839        3.41728       -0.32257
C          6.35759        4.62765       -0.88301
C          6.77899        5.65319       -1.34293
H          0.73112       -1.01692        0.46432
H          0.65514        0.04597       -0.94910
H          0.65535        0.73109        0.69818
H          2.87475       -0.78120       -0.53171
H          2.63593        2.08363        0.14498
H          2.64121        1.41278       -1.49698
H          4.93373        0.47180       -1.09903
H          4.91976        1.11600        0.54098
H          4.81297        2.83221       -2.04696
H          6.15549        3.18462        0.69878
H          7.15674        6.56434       -1.74457
