17

C          1.07731        0.10046        0.28485
N          2.52501        0.11793        0.12956
C          3.12793       -1.01540        0.03166
C          2.53055       -2.39527        0.12911
C          3.53009       -3.17033       -0.67650
C          4.91522       -3.45383       -0.17383
N          4.68571       -2.30884       -1.04472
N          4.46888       -1.14483       -0.25725
H          0.70740        1.13033        0.28783
H          0.77342       -0.37073        1.22317
H          0.59466       -0.40274       -0.56064
H          1.52872       -2.45432       -0.29243
H          2.51821       -2.71959        1.17536
H          3.10484       -3.74297       -1.49081
H          5.45648       -4.27484       -0.63758
H          5.16938       -3.27061        0.86183
H          4.87181       -0.28430       -0.62099
