22

C          2.81714       -0.12567       -1.41564
N          2.57619        0.07196        0.01770
C          1.13353        0.12748        0.26643
C          3.18443       -0.99990        0.82169
C          4.69983       -1.05292        0.73401
C          5.31507       -2.17396        0.30640
C          5.41346        0.20834        1.16389
N          6.87156        0.12273        1.11905
H          2.36189        0.68667       -1.99291
H          2.40814       -1.07590       -1.77719
H          3.88688       -0.09747       -1.64985
H          0.68161        0.96390       -0.27843
H          0.92827        0.29924        1.32879
H          0.62548       -0.79545       -0.03782
H          2.74646       -1.97090        0.55075
H          2.93470       -0.84030        1.88028
H          4.75369       -3.05428        0.01000
H          6.39445       -2.23475        0.21823
H          5.11467        0.45858        2.18961
H          5.10701        1.03902        0.52014
H          7.17606       -0.56364        1.80721
H          7.25767        1.01519        1.41990
