18

C          1.06516        0.06389       -0.02663
N          2.52001        0.08432       -0.06066
C          3.00009        0.62451       -1.32651
C          4.52009        0.62451       -1.32651
C          5.82394        0.62451       -1.32651
C          7.25463        0.65447       -1.30141
C          7.97868       -0.10786       -0.22332
N          7.99356       -0.56951       -1.60554
H          0.72766       -0.34315        0.93164
H          0.65207       -0.56405       -0.82302
H          0.65264        1.07407       -0.11789
H          2.87593       -0.86437        0.04649
H          2.65538        1.65537       -1.46584
H          2.65044        0.02141       -2.17228
H          7.72120        1.57032       -1.65078
H          7.41224       -0.70204        0.48292
H          8.90644        0.30517        0.15223
H          7.34198       -1.34445       -1.73996
