20

C          1.06177        0.33285        0.63457
N          2.51779        0.32679        0.60049
C          3.04546       -0.99085        0.94794
C          4.53424       -1.00444        0.88376
C          5.31432       -1.74837        0.09302
C          6.74699       -1.49543        0.38608
N          6.76380       -0.34816        1.31282
C          5.37850       -0.19200        1.80270
H          0.69770        1.32817        0.36151
H          0.68357        0.10027        1.63545
H          0.64257       -0.37936       -0.08322
H          2.85997        1.01432        1.26887
H          2.64482       -1.74223        0.25586
H          2.72958       -1.27831        1.95800
H          4.96809       -2.45644       -0.64479
H          7.30498       -1.25800       -0.52486
H          7.20489       -2.36856        0.86139
H          6.97512        0.47988        0.75615
H          5.10222        0.86669        1.79613
H          5.30346       -0.56687        2.82870
