24

C          0.98564        0.11184       -0.03483
N          2.44029        0.04566       -0.00777
C          3.04231        1.33799       -0.35487
C          4.60261        1.33555       -0.32736
C          5.10384        0.94947        1.07897
C          5.15845        0.32999       -1.35639
C          5.06734        2.77696       -0.69118
N          6.51746        2.95579       -0.73515
H          0.57312       -0.86652        0.23160
H          0.61378        0.37362       -1.03060
H          0.60783        0.83708        0.69252
H          2.75064       -0.66559       -0.66840
H          2.67988        2.09704        0.35112
H          2.70153        1.63834       -1.35470
H          4.74411       -0.04100        1.37787
H          4.76006        1.66978        1.82985
H          6.19750        0.91312        1.12441
H          4.87482       -0.69919       -1.11334
H          6.25323        0.35237       -1.39239
H          4.78643        0.55270       -2.36276
H          4.65373        3.49363        0.02904
H          4.66734        3.05111       -1.67501
H          6.91478        2.78978        0.18843
H          6.73248        3.92579       -0.96253
