19

C          3.02791        1.31904        0.01266
N          2.62035       -0.07770        0.14397
C          3.10652       -0.89447       -0.98137
C          4.60911       -0.96047       -0.98620
N          5.33762       -0.52191       -1.97023
N          6.62147       -0.78281       -1.62072
C          6.75108       -1.01208       -0.18557
C          5.37795       -1.55642        0.15376
H          2.60645        1.89374        0.84303
H          2.66549        1.75920       -0.92118
H          4.11463        1.43239        0.06747
H          1.60097       -0.11551        0.14346
H          2.74056       -0.50658       -1.93787
H          2.72973       -1.91638       -0.86670
H          7.27087       -0.07695       -1.97133
H          6.92803       -0.06369        0.33426
H          7.55587       -1.71053        0.05821
H          5.01680       -1.20841        1.12352
H          5.32664       -2.64716        0.09034
