20

C          1.10659       -0.04145       -0.04615
N          2.55655       -0.05397       -0.18193
C          3.24491        1.22323       -0.16174
C          3.22530       -1.26147       -0.17197
N          2.63125       -2.41504       -0.06676
C          3.69506       -3.43356       -0.04450
C          4.91045       -2.77084       -0.65601
C          4.73154       -1.32874       -0.25301
H          0.69499        0.97285       -0.07076
H          0.80664       -0.49724        0.90353
H          0.64360       -0.59988       -0.86675
H          2.55291        2.07011       -0.10863
H          3.84057        1.34880       -1.07162
H          3.90919        1.28732        0.70634
H          3.39513       -4.31407       -0.62046
H          3.88072       -3.74338        0.98989
H          4.87814       -2.86240       -1.74845
H          5.85242       -3.20218       -0.30632
H          5.14455       -0.64185       -0.99433
H          5.15440       -1.11910        0.73414
