21

C          1.01806        0.24901        0.06066
N          2.45553        0.02993       -0.01019
C          2.83139       -1.39633       -0.03855
C          2.29123       -2.15262       -1.28289
C          2.64859       -3.62063       -1.30578
C          1.75509       -4.61845       -1.31078
C          4.34438       -1.42087       -0.01075
C          5.08544       -2.01628        0.93347
H          0.82549        1.30950        0.25539
H          0.55387       -0.32678        0.86768
H          0.52775        0.01076       -0.88763
H          2.88364        0.44259        0.81982
H          2.44347       -1.88159        0.86795
H          2.68051       -1.69151       -2.19977
H          1.20012       -2.05964       -1.32726
H          3.70838       -3.86701       -1.33705
H          0.68619       -4.43141       -1.29410
H          2.08231       -5.65344       -1.33806
H          4.84936       -0.91091       -0.83033
H          4.63238       -2.54255        1.76782
H          6.16966       -1.99178        0.88266
