13

C          1.01494        0.02829        0.17845
N          2.46124        0.03431        0.15899
C          3.29478       -0.19762        1.23196
C          4.63973       -0.20310        1.25699
C          5.39973        0.07484       -0.02969
N          6.03021        0.30541       -1.09710
C          5.39973       -0.48104        2.54367
N          6.03021       -0.71161        3.61108
H          0.63428        0.24577       -0.82481
H          0.63462        0.79269        0.86130
H          0.63663       -0.95148        0.48231
H          2.88521        0.22897       -0.74938
H          2.73837       -0.39584        2.15014
