21

C          0.85135        0.47280        0.16716
N          2.28720        0.27095        0.07507
C          2.85019       -0.57582        1.14573
C          2.29566       -2.01959        1.17602
C          3.01357       -2.70461        0.04200
C          4.32547       -3.40864        0.22069
C          4.30393       -1.96125       -0.18053
C          4.34385       -0.83027        0.81863
H          0.53909        1.16371       -0.62225
H          0.56281        0.90269        1.12937
H          0.29793       -0.45574        0.00095
H          2.75732        1.17506        0.08653
H          2.73546       -0.07424        2.11398
H          1.21038       -2.08265        1.08287
H          2.56481       -2.49723        2.12821
H          2.39003       -2.89186       -0.82149
H          4.60906       -4.13463       -0.53647
H          4.64998       -3.66887        1.22011
H          4.53591       -1.66152       -1.19378
H          4.84861        0.05520        0.41821
H          4.88279       -1.14231        1.72187
